000102030405060708090a0b0c0d
    1C01BD00  3000070C      
    EF00            0B      
    7B01                    
    1C              0A      
    EF00                    
    7B01                    
    1C            08        
BD00EF00B2    3809  0C      
    7B01            0B      
    1C          08          
    EF00            0A      
    7B01                    
    1C          0709        
    EF00                    
B2  7B01BD      09  0C      
    1C              0B      
    EF00        080A        
    7B01            0A      
    1C                      
    EF00        07          
    7B01                    
BD  1C  D6      09  0C      
    EF00            0B      
    7B01        08          
    1C            0B0A      
    EF00                    
    7B01        07          
    1C                      
D6  EF00BD      09  0C      
    7B01            0B      
    1C          08          
    EF00            0A      
    7B01                    
    1C          07          
    EF00                    
BD  7B01        09          
    1C                      
    EF00        08          
    7B01                    
    1C                      
    EF00BB      07          
    7B01B9                  
    1C  77          0C      
    EF00            0B      
    7B01                    
    1C              0A      
    EF00                    
B9  7B01                    
BB  1C                      
77  EF00        09          
    7B01                    
    1C          08          
    EF00                    
    7B01                    
    1C  75      07          
    EF0073                  
    7B0175                  
    1C  77                  
    EF0079                  
    7B017B                  
    1C  79                  
73  EF0077                  
75  7B0175                  
77  1C  73                  
79  EF0075                  
7B  7B0177                  
79  1C  79                  
77  EF007B                  
75  7B0179                  
73  1C  77                  
75  EF0075                  
77  7B0173                  
79  1C  75                  
7B  EF0077                  
79  7B0179                  
77  1C  7B                  
75  EF0079                  
73  7B0177                  
    1C  75                  
77  EF0073                  
79  7B0175                  
7B  1C  77                  
79  EF0079                  
77  7B017B                  
75  1C  79                  
73  EF0077                  
    7B0175                  
77  1C  73                  
79  EF0075                  
7B  7B0177                  
79  1C  79                  
77  EF007B                  
75  7B0179                  
73  1C  77                  
    EF0075                  
77  7B0173                  
79  1C  75                  
7B  EF0077                  
79  7B0179                  
77  1C  7B                  
75  EF0079                  
73  7B0177                  
    1C  75                  
77  EF0073                  
79  7B0175                  
7B  1C  77                  
79  EF0079                  
77  7B017B                  
75  1C  79                  
73  EF0077                  
    7B0175                  
77  1C  73                  
79  3E  BD        070C      
7B  FC00            0B      
79  AC01                    
77  3E              0A      
75  FC00                    
73  AC01                    
    3E            08        
BD  FC00B2      09  0C      
    AC01            0B      
    3E          08          
    FC00            0A      
    AC01                    
    3E          0709        
    FC00                    
B2  AC01BD      09  0C      
    3E              0B      
    FC00        080A        
    AC01            0A      
    3E                      
    FC00        07          
    AC01                    
BD  3E  D6      09  0C      
    FC00            0B      
    AC01        08          
    3E            0B0A      
    FC00                    
    AC01        07          
    3E                      
D6  FC00BD      09  0C      
    AC01            0B      
    3E          08          
    FC00            0A      
    AC01                    
    3E          07          
    FC00                    
BD  AC01        09          
    3E                      
    FC00        08          
    AC01                    
    3E                      
    FC00BB      07          
    AC01B9                  
    3E  7E          0C      
    FC00            0B      
    AC01                    
    3E              0A      
    FC00                    
B9  AC01                    
BB  3E                      
7E  FC00        09          
    AC01                    
    3E          08          
    FC00                    
    AC01                    
    3E  7C      07          
    FC007A                  
    AC017C                  
    3E  7E                  
    FC0080                  
    AC0182                  
    3E  80                  
7A  FC007E                  
7C  AC017C                  
7E  3E  7A                  
80  FC007C                  
82  AC017E                  
80  3E  80                  
7E  FC0082                  
7C  AC0180                  
7A  3E  7E                  
7C  FC007C                  
7E  AC017A                  
80  3E  7C                  
82  FC007E                  
80  AC0180                  
7E  3E  82                  
7C  FC0080                  
7A  AC017E                  
    3E  7C                  
7E  FC007A                  
80  AC017C                  
82  3E  7E                  
80  FC0080                  
7E  AC0182                  
7C  3E  80                  
7A  FC007E                  
    AC017C                  
7E  3E  7A                  
80  FC007C                  
82  AC017E                  
80  3E  80                  
7E  FC0082                  
7C  AC0180                  
7A  3E  7E                  
    FC007C                  
7E  AC017A                  
80  3E  7C                  
82  FC007E                  
80  AC0180                  
7E  3E  82                  
7C  FC0080                  
7A  AC017E                  
    3E  7C                  
7E  FC007A                  
80  AC017C                  
82  3E  7E                  
80  FC0080                  
7E  AC0182                  
7C  3E  80                  
7A  FC007E                  
    AC017C                  
7E  3E  7A                  
80  65  BD        070C      
82  1C              0B      
80  DF                      
7E  65              0A      
7C  1C                      
7A  DF                      
    65            08        
BD  1C  B2      09  0C      
    DF              0B      
    65          08          
    1C              0A      
    DF                      
    65          0709        
    1C                      
B2  DF  BD      09  0C      
    65              0B      
    1C          080A        
    DF              0A      
    65                      
    1C          07          
    DF                      
BD  65  D6      09  0C      
    1C              0B      
    DF          08          
    65            0B0A      
    1C                      
    DF          07          
    65                      
D6  1C  BD      09  0C      
    DF              0B      
    65          08          
    1C              0A      
    DF                      
    65          07          
    1C                      
BD  DF          09          
    65                      
    1C          08          
    DF                      
    65                      
    1C  BB      07          
    DF  B9                  
    65  8E          0C      
    1C              0B      
    DF                      
    65              0A      
    1C                      
B9  DF                      
BB  65                      
8E  1C          09          
    DF                      
    65          08          
    1C                      
    DF                      
    65  8C      07          
    1C  8A                  
    DF  8C                  
    65  8E                  
    1C  90                  
    DF  92                  
    65  90                  
8A  1C  8E                  
8C  DF  8C                  
8E  65  8A                  
90  1C  8C                  
92  DF  8E                  
90  65  90                  
8E  1C  92                  
8C  DF  90                  
8A  65  8E                  
8C  1C  8C                  
8E  DF  8A                  
90  65  8C                  
92  1C  8E                  
90  DF  90                  
8E  65  92                  
8C  1C  90                  
8A  DF  8E                  
    65  8C                  
8E  1C  8A                  
90  DF  8C                  
92  65  8E                  
90  1C  90                  
8E  DF  92                  
8C  65  90                  
8A  1C  8E                  
    DF  8C                  
8E  65  8A                  
90  1C  8C                  
92  DF  8E                  
90  65  90                  
8E  1C  92                  
8C  DF  90                  
8A  65  8E                  
    1C  8C                  
8E  DF  8A                  
90  65  8C                  
92  1C  8E                  
90  DF  90                  
8E  65  92                  
8C  1C  90                  
8A  DF  8E                  
    65  8C                  
8E  1C  8A                  
90  DF  8C                  
92  65  8E                  
90  1C  90                  
8E  DF  92                  
8C  65  90                  
8A  1C  8E                  
    DF  8C                  
8E  65  8A                  
90  7B  BD        070C      
92  2C              0B      
90  F8                      
8E  7B              0A      
8C  2C                      
8A  F8                      
    7B            08        
BD  2C  B2      09  0C      
    F8              0B      
    7B          08          
    2C              0A      
    F8                      
    7B          0709        
    2C                      
B2  F8  BD      09  0C      
    7B              0B      
    2C          080A        
    F8              0A      
    7B                      
    2C          07          
    F8                      
BD  7B  D6      09  0C      
    2C              0B      
    F8          08          
    7B            0B0A      
    2C                      
    F8          07          
    7B                      
D6  2C  BD      09  0C      
    F8              0B      
    7B          08          
    2C              0A      
    F8                      
    7B          07          
    2C                      
BD  F8          09          
    7B                      
    2C          08          
    F8                      
    7B                      
    2C  BB      07          
    F8  B9                  
    7B  96          0C      
    2C              0B      
    F8                      
    7B              0A      
    2C                      
B9  F8                      
BB  7B                      
96  2C          09          
    F8                      
    7B          08          
    2C                      
    F8                      
    7B  94      07          
    2C  92                  
    F8  94                  
    7B  96                  
    2C  98                  
    F8  9A                  
    7B  98                  
92  2C  96                  
94  F8  94                  
96  7B  92                  
98  2C  94                  
9A  F8  96                  
98  7B  98                  
96  2C  9A                  
94  F8  98                  
92  7B  96                  
94  2C  94                  
96  F8  92                  
98  7B  94                  
9A  2C  96                  
98  F8  98                  
96  7B  9A                  
94  2C  98                  
92  F8  96                  
    7B  94                  
96  2C  92                  
98  F8  94                  
9A  7B  96                  
98  2C  98                  
96  F8  9A                  
94  7B  98                  
92  2C  96                  
    F8  94                  
96  7B  92                  
98  2C  94                  
9A  F8  96                  
98  7B  98                  
96  2C  9A                  
94  F8  98                  
92  7B  96                  
    2C  94                  
96  F8  92                  
98  7B  94                  
9A  2C  96                  
98  F8  98                  
96  7B  9A                  
94  2C  98                  
92  F8  96                  
    7B  94                  
96  2C  92                  
98  F8  94                  
9A  7B  96                  
98  2C  98                  
96  F8  9A                  
94  7B  98                  
92  2C  96                  
    F8  94                  
96  7B  92                  
    1C  BD    3000070C      
    EF00            0B      
    7B01                    
    1C              0A      
    EF00                    
    7B01                    
    1C            08        
BD  EF00B2    3809  0C      
    7B01            0B      
    1C          08          
    EF00            0A      
    7B01                    
    1C          0709        
    EF00                    
B2  7B01BD      09  0C      
    1C              0B      
    EF00        080A        
    7B01            0A      
    1C                      
    EF00        07          
    7B01                    
BD  1C  D6      09  0C      
    EF00            0B      
    7B01        08          
    1C            0B0A      
    EF00                    
    7B01        07          
    1C                      
D6  EF00BD      09  0C      
    7B01            0B      
    1C          08          
    EF00            0A      
    7B01                    
    1C          07          
    EF00                    
BD  7B01        09          
    1C                      
    EF00        08          
    7B01                    
    1C                      
    EF00BB      07          
    7B01B9                  
    1C  77          0C      
    EF00            0B      
    7B01                    
    1C              0A      
    EF00                    
B9  7B01                    
BB  1C                      
77  EF00        09          
    7B01                    
    1C          08          
    EF00                    
    7B01                    
    1C  75      07          
    EF0073                  
    7B0175                  
    1C  77                  
    EF0079                  
    7B017B                  
    1C  79                  
73  EF0077                  
75  7B0175                  
77  1C  73                  
79  EF0075                  
7B  7B0177                  
79  1C  79                  
77  EF007B                  
75  7B0179                  
73  1C  77                  
75  EF0075                  
77  7B0173                  
79  1C  75                  
7B  EF0077                  
79  7B0179                  
77  1C  7B                  
75  EF0079                  
73  7B0177                  
    1C  75                  
77  EF0073                  
79  7B0175                  
7B  1C  77                  
79  EF0079                  
77  7B017B                  
75  1C  79                  
73  EF0077                  
    7B0175                  
77  1C  73                  
79  EF0075                  
7B  7B0177                  
79  1C  79                  
77  EF007B                  
75  7B0179                  
73  1C  77                  
    EF0075                  
77  7B0173                  
79  1C  75                  
7B  EF0077                  
79  7B0179                  
77  1C  7B                  
75  EF0079                  
73  7B0177                  
    1C  75                  
77  EF0073                  
79  7B0175                  
7B  1C  77                  
79  EF0079                  
77  7B017B                  
75  1C  79                  
73  EF0077                  
    7B0175                  
77  1C  73                  
79  3E  BD        070C      
7B  FC00            0B      
79  AC01                    
77  3E              0A      
75  FC00                    
73  AC01                    
    3E            08        
BD  FC00B2      09  0C      
    AC01            0B      
    3E          08          
    FC00            0A      
    AC01                    
    3E          0709        
    FC00                    
B2  AC01BD      09  0C      
    3E              0B      
    FC00        080A        
    AC01            0A      
    3E                      
    FC00        07          
    AC01                    
BD  3E  D6      09  0C      
    FC00            0B      
    AC01        08          
    3E            0B0A      
    FC00                    
    AC01        07          
    3E                      
D6  FC00BD      09  0C      
    AC01            0B      
    3E          08          
    FC00            0A      
    AC01                    
    3E          07          
    FC00                    
BD  AC01        09          
    3E                      
    FC00        08          
    AC01                    
    3E                      
    FC00BB      07          
    AC01B9                  
    3E  7E          0C      
    FC00            0B      
    AC01                    
    3E              0A      
    FC00                    
B9  AC01                    
BB  3E                      
7E  FC00        09          
    AC01                    
    3E          08          
    FC00                    
    AC01                    
    3E  7C      07          
    FC007A                  
    AC017C                  
    3E  7E                  
    FC0080                  
    AC0182                  
    3E  80                  
7A  FC007E                  
7C  AC017C                  
7E  3E  7A                  
80  FC007C                  
82  AC017E                  
80  3E  80                  
7E  FC0082                  
7C  AC0180                  
7A  3E  7E                  
7C  FC007C                  
7E  AC017A                  
80  3E  7C                  
82  FC007E                  
80  AC0180                  
7E  3E  82                  
7C  FC0080                  
7A  AC017E                  
    3E  7C                  
7E  FC007A                  
80  AC017C                  
82  3E  7E                  
80  FC0080                  
7E  AC0182                  
7C  3E  80                  
7A  FC007E                  
    AC017C                  
7E  3E  7A                  
80  FC007C                  
82  AC017E                  
80  3E  80                  
7E  FC0082                  
7C  AC0180                  
7A  3E  7E                  
    FC007C                  
7E  AC017A                  
80  3E  7C                  
82  FC007E                  
80  AC0180                  
7E  3E  82                  
7C  FC0080                  
7A  AC017E                  
    3E  7C                  
7E  FC007A                  
80  AC017C                  
82  3E  7E                  
80  FC0080                  
7E  AC0182                  
7C  3E  80                  
7A  FC007E                  
    AC017C                  
7E  3E  7A                  
80  65  BD        070C      
82  1C              0B      
80  DF                      
7E  65              0A      
7C  1C                      
7A  DF                      
    65            08        
BD  1C  B2      09  0C      
    DF              0B      
    65          08          
    1C              0A      
    DF                      
    65          0709        
    1C                      
B2  DF  BD      09  0C      
    65              0B      
    1C          080A        
    DF              0A      
    65                      
    1C          07          
    DF                      
BD  65  D6      09  0C      
    1C              0B      
    DF          08          
    65            0B0A      
    1C                      
    DF          07          
    65                      
D6  1C  BD      09  0C      
    DF              0B      
    65          08          
    1C              0A      
    DF                      
    65          07          
    1C                      
BD  DF          09          
    65                      
    1C          08          
    DF                      
    65                      
    1C  BB      07          
    DF  B9                  
    65  8E          0C      
    1C              0B      
    DF                      
    65              0A      
    1C                      
B9  DF                      
BB  65                      
8E  1C          09          
    DF                      
    65          08          
    1C                      
    DF                      
    65  8C      07          
    1C  8A                  
    DF  8C                  
    65  8E                  
    1C  90                  
    DF  92                  
    65  90                  
8A  1C  8E                  
8C  DF  8C                  
8E  65  8A                  
90  1C  8C                  
92  DF  8E                  
90  65  90                  
8E  1C  92                  
8C  DF  90                  
8A  65  8E                  
8C  1C  8C                  
8E  DF  8A                  
90  65  8C                  
92  1C  8E                  
90  DF  90                  
8E  65  92                  
8C  1C  90                  
8A  DF  8E                  
    65  8C                  
8E  1C  8A                  
90  DF  8C                  
92  65  8E                  
90  1C  90                  
8E  DF  92                  
8C  65  90                  
8A  1C  8E                  
    DF  8C                  
8E  65  8A                  
90  1C  8C                  
92  DF  8E                  
90  65  90                  
8E  1C  92                  
8C  DF  90                  
8A  65  8E                  
    1C  8C                  
8E  DF  8A                  
90  65  8C                  
92  1C  8E                  
90  DF  90                  
8E  65  92                  
8C  1C  90                  
8A  DF  8E                  
    65  8C                  
8E  1C  8A                  
90  DF  8C                  
92  65  8E                  
90  1C  90                  
8E  DF  92                  
8C  65  90                  
8A  1C  8E                  
    DF  8C                  
8E  65  8A                  
90  7B  BD        070C      
92  2C              0B      
90  F8                      
8E  7B              0A      
8C  2C                      
8A  F8                      
    7B            08        
BD  2C  B2      09  0C      
    F8              0B      
    7B          08          
    2C              0A      
    F8                      
    7B          0709        
    2C                      
B2  F8  BD      09  0C      
    7B              0B      
    2C          080A        
    F8              0A      
    7B                      
    2C          07          
    F8                      
BD  7B  D6      09  0C      
    2C              0B      
    F8          08          
    7B            0B0A      
    2C                      
    F8          07          
    7B                      
D6  2C  BD      09  0C      
    F8              0B      
    7B          08          
    2C              0A      
    F8                      
    7B          07          
    2C                      
BD  F8          09          
    7B                      
    2C          08          
    F8                      
    7B                      
    2C  BB      07          
    F8  B9                  
    7B  96          0C      
    2C              0B      
    F8                      
    7B              0A      
    2C                      
B9  F8                      
BB  7B                      
96  2C          09          
    F8                      
    7B          08          
    2C                      
    F8                      
    7B  94      07          
    2C  92                  
    F8  94                  
    7B  96                  
    2C  98                  
    F8  9A                  
    7B  98                  
92  2C  96                  
94  F8  94                  
96  7B  92                  
98  2C  94                  
9A  F8  96                  
98  7B  98                  
96  2C  9A                  
94  F8  98                  
92  7B  96                  
94  2C  94                  
96  F8  92                  
98  7B  94                  
9A  2C  96                  
98  F8  98                  
96  7B  9A                  
94  2C  98                  
92  F8  96                  
    7B  94                  
96  2C  92                  
98  F8  94                  
9A  7B  96                  
98  2C  98                  
96  F8  9A                  
94  7B  98                  
92  2C  96                  
    F8  94                  
96  7B  92                  
98  2C  94                  
9A  F8  96                  
98  7B  98                  
96  2C  9A                  
94  F8  98                  
92  7B  96                  
    2C  94                  
96  F8  92                  
98  7B  94                  
9A  2C  96                  
98  F8  98                  
96  7B  9A                  
94  2C  98                  
92  F8  96                  
    7B  94                  
96  2C  92                  
98  F8  94                  
9A  7B  96                  
98  2C  98                  
96  F8  9A                  
94  7B  98                  
92  2C  96                  
    F8  94                  
96  7B  92                  
DF031C  BD      0F0C0C      
  05EF00        0E  0B      
  077B01        0D0B        
  091C          0C  0A      
  0BEF00        0B          
  0D7B01        0A0A        
  0E1C          09          
7004EF00B2      0C  0C      
    7B01        0B  0B      
E0081C                      
    EF00        0A  0A      
    7B01                    
    1C          09          
    EF00      3900          
38021C01BD    380C0C0C      
    EF00        0B  0B      
70047B01          0B        
    1C          0A  0A      
    EF00                    
    7B01        090A        
    1C        3900          
3802EF00D6    380C  0C      
    7B01        0B  0B      
70041C                      
    EF00        0A  0A      
    7B01                    
    1C          09          
    EF00      3900          
8E011C01BD  10300E0C0C      
0E02EF00    13  0D  0B      
8E  7B01    16  0C0B        
0E031C      15  0B  0A      
8E  EF00    14  0A          
0E047B01    13  090A        
8E  1C      12  08          
70  EF00      380C          
    7B01        0B          
E0081C                      
    EF00        0A          
    7B01                    
    1C  BB      09          
    EF00B9    3900          
38021C0177    380C0C0C      
    EF00        0B  0B      
70047B01          0B        
    1C          0A  0A      
    EF00                    
    7B01        090A        
    1C        3900          
3802EF00      380C          
    7B01        0B          
70041C                      
    EF00        0A          
    7B01                    
    1C  75      09          
    EF0073    3900          
DF031C0175    380F0C        
  05EF0077      0E          
  077B0179      0D0B        
  091C  7B      0C          
  0BEF0079      0B          
  0D7B0177      0A0A        
  0E1C  75      09          
7004EF0073      0C          
    7B0175      0B          
E0081C  77                  
    EF0079      0A          
    7B017B                  
    1C  79      09          
    EF0077    3900          
38021C0175    380C0C        
    EF0073      0B          
70047B0175        0B        
    1C  77      0A          
    EF0079                  
    7B017B      090A        
    1C  79    3900          
3802EF0077    380C          
    7B0175      0B          
70041C  73                  
    EF0075      0A          
    7B0177                  
    1C  79      09          
    EF007B    3900          
8E011C0179  10300E0C        
0E02EF0077  13  0D          
8E  7B0175  16  0C0B        
0E031C  73  15  0B          
8E  EF0075  14  0A          
0E047B0177  13  090A        
8E  1C  79  12  08          
70  EF007B    380C          
    7B0179      0B          
E0081C  77                  
    EF0075      0A          
    7B0173                  
    1C  75      09          
    EF0077    3900          
38021C0179    380C0C        
    EF007B      0B          
70047B0179        0B        
    1C  77      0A          
    EF0075                  
    7B0173      090A        
    1C  75    3900          
3802EF0077    380C          
    7B0179      0B          
70041C  7B                  
    EF0079      0A          
    7B0177                  
    1C  75      09          
    EF0073    3900          
DF033E01BD    380F0C0C      
  05FC00        0E  0B      
  07AC01        0D0B        
  093E          0C  0A      
  0BFC00        0B          
  0DAC01        0A0A        
  0E3E          09          
F804FC00B2      0C  0C      
    AC01        0B  0B      
F0093E                      
    FC00        0A  0A      
    AC01                    
    3E          09          
    FC00      3900          
7C023E01BD    380C0C0C      
    FC00        0B  0B      
F804AC01          0B        
    3E          0A  0A      
    FC00                    
    AC01        090A        
    3E        3900          
7C02FC00D6    380C  0C      
    AC01        0B  0B      
F8043E                      
    FC00        0A  0A      
    AC01                    
    3E          09          
    FC00      3900          
8E013E01BD  10300E0C0C      
0E02FC00    13  0D  0B      
8E  AC01    16  0C0B        
0E033E      15  0B  0A      
8E  FC00    14  0A          
0E04AC01    13  090A        
8E  3E      12  08          
F8  FC00      380C          
    AC01        0B          
F0093E                      
    FC00        0A          
    AC01                    
    3E  BB      09          
    FC00B9    3900          
7C023E017E    380C0C0C      
    FC00        0B  0B      
F804AC01          0B        
    3E          0A  0A      
    FC00                    
    AC01        090A        
    3E        3900          
7C02FC00      380C          
    AC01        0B          
F8043E                      
    FC00        0A          
    AC01                    
    3E  7C      09          
    FC007A    3900          
DF033E017C    380F0C        
  05FC007E      0E          
  07AC0180      0D0B        
  093E  82      0C          
  0BFC0080      0B          
  0DAC017E      0A0A        
  0E3E  7C      09          
F804FC007A      0C          
    AC017C      0B          
F0093E  7E                  
    FC0080      0A          
    AC0182                  
    3E  80      09          
    FC007E    3900          
7C023E017C    380C0C        
    FC007A      0B          
F804AC017C        0B        
    3E  7E      0A          
    FC0080                  
    AC0182      090A        
    3E  80    3900          
7C02FC007E    380C          
    AC017C      0B          
F8043E  7A                  
    FC007C      0A          
    AC017E                  
    3E  80      09          
    FC0082    3900          
8E013E0180  10300E0C        
0E02FC007E  13  0D          
8E  AC017C  16  0C0B        
0E033E  7A  15  0B          
8E  FC007C  14  0A          
0E04AC017E  13  090A        
8E  3E  80  12  08          
F8  FC0082    380C          
    AC0180      0B          
F0093E  7E                  
    FC007C      0A          
    AC017A                  
    3E  7C      09          
    FC007E    3900          
7C023E0180    380C0C        
    FC0082      0B          
F804AC0180        0B        
    3E  7E      0A          
    FC007C                  
    AC017A      090A        
    3E  7C    3900          
7C02FC007E    380C          
    AC0180      0B          
F8043E  82                  
    FC0080      0A          
    AC017E                  
    3E  7C      09          
    FC007A    3900          
DF036501BD    380F0C0C      
  051C          0E  0B      
  07DF          0D0B        
  0965          0C  0A      
  0B1C          0B          
  0DDF          0A0A        
  0E65          09          
94051C  B2      0C  0C      
    DF          0B  0B      
280B65                      
    1C          0A  0A      
    DF                      
    65          09          
    1C        3900          
CA0265  BD    380C0C0C      
    1C          0B  0B      
9405DF            0B        
    65          0A  0A      
    1C                      
    DF          090A        
    65        3900          
CA021C  D6    380C  0C      
    DF          0B  0B      
940565                      
    1C          0A  0A      
    DF                      
    65          09          
    1C        3900          
8E0165  BD  10300E0C0C      
0E021C      13  0D  0B      
8E  DF      16  0C0B        
0E0365      15  0B  0A      
8E  1C      14  0A          
0E04DF      13  090A        
8E  65      12  08          
94051C        380C          
    DF          0B          
280B65                      
    1C          0A          
    DF                      
    65  BB      09          
    1C  B9    3900          
CA0265  8E    380C0C0C      
    1C          0B  0B      
9405DF            0B        
    65          0A  0A      
    1C                      
    DF          090A        
    65        3900          
CA021C        380C          
    DF          0B          
940565                      
    1C          0A          
    DF                      
    65  8C      09          
    1C  8A    3900          
DF0365  8C    380F0C        
  051C  8E      0E          
  07DF  90      0D0B        
  0965  92      0C          
  0B1C  90      0B          
  0DDF  8E      0A0A        
  0E65  8C      09          
94051C  8A      0C          
    DF  8C      0B          
280B65  8E                  
    1C  90      0A          
    DF  92                  
    65  90      09          
    1C  8E    3900          
CA0265  8C    380C0C        
    1C  8A      0B          
9405DF  8C        0B        
    65  8E      0A          
    1C  90                  
    DF  92      090A        
    65  90    3900          
CA021C  8E    380C          
    DF  8C      0B          
940565  8A                  
    1C  8C      0A          
    DF  8E                  
    65  90      09          
    1C  92    3900          
8E0165  90  10300E0C        
0E021C  8E  13  0D          
8E  DF  8C  16  0C0B        
0E0365  8A  15  0B          
8E  1C  8C  14  0A          
0E04DF  8E  13  090A        
8E  65  90  12  08          
94051C  92    380C          
    DF  90      0B          
280B65  8E                  
    1C  8C      0A          
    DF  8A                  
    65  8C      09          
    1C  8E    3900          
CA0265  90    380C0C        
    1C  92      0B          
9405DF  90        0B        
    65  8E      0A          
    1C  8C                  
    DF  8A      090A        
    65  8C    3900          
CA021C  8E    380C          
    DF  90      0B          
940565  92                  
    1C  90      0A          
    DF  8E                  
    65  8C      09          
    1C  8A    3900          
DF037B  BD    380F0C0C      
  052C          0E  0B      
  07F8          0D0B        
  097B          0C  0A      
  0B2C          0B          
  0DF8          0A0A        
  0E7B          09          
EC052C  B2      0C  0C      
    F8          0B  0B      
D80B7B                      
    2C          0A  0A      
    F8                      
    7B          09          
    2C        3900          
F6027B  BD    380C0C0C      
    2C          0B  0B      
EC05F8            0B        
    7B          0A  0A      
    2C                      
    F8          090A        
    7B        3900          
F6022C  D6    380C  0C      
    F8          0B  0B      
EC057B                      
    2C          0A  0A      
    F8                      
    7B          09          
    2C        3900          
8E017B  BD  10300E0C0C      
0E022C      13  0D  0B      
8E  F8      16  0C0B        
0E037B      15  0B  0A      
8E  2C      14  0A          
0E04F8      13  090A        
8E  7B      12  08          
EC052C        380C          
    F8          0B          
D80B7B                      
    2C          0A          
    F8                      
    7B  BB      09          
    2C  B9    3900          
F6027B  96    380C0C0C      
    2C          0B  0B      
EC05F8            0B        
    7B          0A  0A      
    2C                      
    F8          090A        
    7B        3900          
F6022C        380C          
    F8          0B          
EC057B                      
    2C          0A          
    F8                      
    7B  94      09          
    2C  92    3900          
DF037B  94    380F0C        
  052C  96      0E          
  07F8  98      0D0B        
  097B  9A      0C          
  0B2C  98      0B          
  0DF8  96      0A0A        
  0E7B  94      09          
EC052C  92      0C          
    F8  94      0B          
D80B7B  96                  
    2C  98      0A          
    F8  9A                  
    7B  98      09          
    2C  96    3900          
F6027B  94    380C0C        
    2C  92      0B          
EC05F8  94        0B        
    7B  96      0A          
    2C  98                  
    F8  9A      090A        
    7B  98    3900          
F6022C  96    380C          
    F8  94      0B          
EC057B  92                  
    2C  94      0A          
    F8  96                  
    7B  98      09          
    2C  9A    3900          
8E017B  98  10300E0C        
0E022C  96  13  0D          
8E  F8  94  16  0C0B        
0E037B  92  15  0B          
8E  2C  94  14  0A          
0E04F8  96  13  090A        
8E  7B  98  12  08          
EC052C  9A    380C          
    F8  98      0B          
D80B7B  96                  
    2C  94      0A          
    F8  92                  
    7B  94      09          
    2C  96    3900          
8E017B  98  10300E0C        
0E022C  9A  13  0D          
8E  F8  98  16  0C0B        
0E037B  96  15  0B          
8E  2C  94  14  0A          
0E04F8  92  13  090A        
8E  7B  94  12  08          
  012C  96  10  0E          
0E02F8  98  13  0D          
8E  7B  9A  16  0C          
0E032C  98  15  0B          
8E  F8  96  14  0A          
0E047B  94  13  09          
8E  2C  92  12  08          
DF031C  BD    380F0C0C      
  05EF00        0E  0B      
  077B01        0D0B        
  091C          0C  0A      
  0BEF00        0B          
  0D7B01        0A0A        
  0E1C          09          
7004EF00B2      0C  0C      
    7B01        0B  0B      
E0081C                      
    EF00        0A  0A      
    7B01                    
    1C          09          
    EF00      3900          
38021C01BD    380C0C0C      
    EF00        0B  0B      
70047B01          0B        
    1C          0A  0A      
    EF00                    
    7B01        090A        
    1C        3900          
3802EF00D6    380C  0C      
    7B01        0B  0B      
70041C                      
    EF00        0A  0A      
    7B01                    
    1C          09          
    EF00      3900          
8E011C01BD  10300E0C0C      
0E02EF00    13  0D  0B      
8E  7B01    16  0C0B        
0E031C      15  0B  0A      
8E  EF00    14  0A          
0E047B01    13  090A        
8E  1C      12  08          
70  EF00      380C          
    7B01        0B          
E0081C                      
    EF00        0A          
    7B01                    
    1C  BB      09          
    EF00B9    3900          
38021C0177    380C0C0C      
    EF00        0B  0B      
70047B01          0B        
    1C          0A  0A      
    EF00                    
    7B01        090A        
    1C        3900          
3802EF00      380C          
    7B01        0B          
70041C                      
    EF00        0A          
    7B01                    
    1C  75      09          
    EF0073    3900          
DF031C0175    380F0C        
  05EF0077      0E          
  077B0179      0D0B        
  091C  7B      0C          
  0BEF0079      0B          
  0D7B0177      0A0A        
  0E1C  75      09          
7004EF0073      0C          
    7B0175      0B          
E0081C  77                  
    EF0079      0A          
    7B017B                  
    1C  79      09          
    EF0077    3900          
38021C0175    380C0C        
    EF0073      0B          
70047B0175        0B        
    1C  77      0A          
    EF0079                  
    7B017B      090A        
    1C  79    3900          
3802EF0077    380C          
    7B0175      0B          
70041C  73                  
    EF0075      0A          
    7B0177                  
    1C  79      09          
    EF007B    3900          
8E011C0179  10300E0C        
0E02EF0077  13  0D          
8E  7B0175  16  0C0B        
0E031C  73  15  0B          
8E  EF0075  14  0A          
0E047B0177  13  090A        
8E  1C  79  12  08          
70  EF007B    380C          
    7B0179      0B          
E0081C  77                  
    EF0075      0A          
    7B0173                  
    1C  75      09          
    EF0077    3900          
38021C0179    380C0C        
    EF007B      0B          
70047B0179        0B        
    1C  77      0A          
    EF0075                  
    7B0173      090A        
    1C  75    3900          
3802EF0077    380C          
    7B0179      0B          
70041C  7B                  
    EF0079      0A          
    7B0177                  
    1C  75      09          
    EF0073    3900          
DF033E01BD    380F0C0C      
  05FC00        0E  0B      
  07AC01        0D0B        
  093E          0C  0A      
  0BFC00        0B          
  0DAC01        0A0A        
  0E3E          09          
F804FC00B2      0C  0C      
    AC01        0B  0B      
F0093E                      
    FC00        0A  0A      
    AC01                    
    3E          09          
    FC00      3900          
7C023E01BD    380C0C0C      
    FC00        0B  0B      
F804AC01          0B        
    3E          0A  0A      
    FC00                    
    AC01        090A        
    3E        3900          
7C02FC00D6    380C  0C      
    AC01        0B  0B      
F8043E                      
    FC00        0A  0A      
    AC01                    
    3E          09          
    FC00      3900          
8E013E01BD  10300E0C0C      
0E02FC00    13  0D  0B      
8E  AC01    16  0C0B        
0E033E      15  0B  0A      
8E  FC00    14  0A          
0E04AC01    13  090A        
8E  3E      12  08          
F8  FC00      380C          
    AC01        0B          
F0093E                      
    FC00        0A          
    AC01                    
    3E  BB      09          
    FC00B9    3900          
7C023E017E    380C0C0C      
    FC00        0B  0B      
F804AC01          0B        
    3E          0A  0A      
    FC00                    
    AC01        090A        
    3E        3900          
7C02FC00      380C          
    AC01        0B          
F8043E                      
    FC00        0A          
    AC01                    
    3E  7C      09          
    FC007A    3900          
DF033E017C    380F0C        
  05FC007E      0E          
  07AC0180      0D0B        
  093E  82      0C          
  0BFC0080      0B          
  0DAC017E      0A0A        
  0E3E  7C      09          
F804FC007A      0C          
    AC017C      0B          
F0093E  7E                  
    FC0080      0A          
    AC0182                  
    3E  80      09          
    FC007E    3900          
7C023E017C    380C0C        
    FC007A      0B          
F804AC017C        0B        
    3E  7E      0A          
    FC0080                  
    AC0182      090A        
    3E  80    3900          
7C02FC007E    380C          
    AC017C      0B          
F8043E  7A                  
    FC007C      0A          
    AC017E                  
    3E  80      09          
    FC0082    3900          
8E013E0180  10300E0C        
0E02FC007E  13  0D          
8E  AC017C  16  0C0B        
0E033E  7A  15  0B          
8E  FC007C  14  0A          
0E04AC017E  13  090A        
8E  3E  80  12  08          
F8  FC0082    380C          
    AC0180      0B          
F0093E  7E                  
    FC007C      0A          
    AC017A                  
    3E  7C      09          
    FC007E    3900          
7C023E0180    380C0C        
    FC0082      0B          
F804AC0180        0B        
    3E  7E      0A          
    FC007C                  
    AC017A      090A        
    3E  7C    3900          
7C02FC007E    380C          
    AC0180      0B          
F8043E  82                  
    FC0080      0A          
    AC017E                  
    3E  7C      09          
    FC007A    3900          
DF036501BD    380F0C0C      
  051C          0E  0B      
  07DF          0D0B        
  0965          0C  0A      
  0B1C          0B          
  0DDF          0A0A        
  0E65          09          
94051C  B2      0C  0C      
    DF          0B  0B      
280B65                      
    1C          0A  0A      
    DF                      
    65          09          
    1C        3900          
CA0265  BD    380C0C0C      
    1C          0B  0B      
9405DF            0B        
    65          0A  0A      
    1C                      
    DF          090A        
    65        3900          
CA021C  D6    380C  0C      
    DF          0B  0B      
940565                      
    1C          0A  0A      
    DF                      
    65          09          
    1C        3900          
8E0165  BD  10300E0C0C      
0E021C      13  0D  0B      
8E  DF      16  0C0B        
0E0365      15  0B  0A      
8E  1C      14  0A          
0E04DF      13  090A        
8E  65      12  08          
94051C        380C          
    DF          0B          
280B65                      
    1C          0A          
    DF                      
    65  BB      09          
    1C  B9    3900          
CA0265  8E    380C0C0C      
    1C          0B  0B      
9405DF            0B        
    65          0A  0A      
    1C                      
    DF          090A        
    65        3900          
CA021C        380C          
    DF          0B          
940565                      
    1C          0A          
    DF                      
    65  8C      09          
    1C  8A    3900          
DF0365  8C    380F0C        
  051C  8E      0E          
  07DF  90      0D0B        
  0965  92      0C          
  0B1C  90      0B          
  0DDF  8E      0A0A        
  0E65  8C      09          
94051C  8A      0C          
    DF  8C      0B          
280B65  8E                  
    1C  90      0A          
    DF  92                  
    65  90      09          
    1C  8E    3900          
CA0265  8C    380C0C        
    1C  8A      0B          
9405DF  8C        0B        
    65  8E      0A          
    1C  90                  
    DF  92      090A        
    65  90    3900          
CA021C  8E    380C          
    DF  8C      0B          
940565  8A                  
    1C  8C      0A          
    DF  8E                  
    65  90      09          
    1C  92    3900          
8E0165  90  10300E0C        
0E021C  8E  13  0D          
8E  DF  8C  16  0C0B        
0E0365  8A  15  0B          
8E  1C  8C  14  0A          
0E04DF  8E  13  090A        
8E  65  90  12  08          
94051C  92    380C          
    DF  90      0B          
280B65  8E                  
    1C  8C      0A          
    DF  8A                  
    65  8C      09          
    1C  8E    3900          
CA0265  90    380C0C        
    1C  92      0B          
9405DF  90        0B        
    65  8E      0A          
    1C  8C                  
    DF  8A      090A        
    65  8C    3900          
CA021C  8E    380C          
    DF  90      0B          
940565  92                  
    1C  90      0A          
    DF  8E                  
    65  8C      09          
    1C  8A    3900          
DF037B  BD    380F0C0C      
  052C          0E  0B      
  07F8          0D0B        
  097B          0C  0A      
  0B2C          0B          
  0DF8          0A0A        
  0E7B          09          
EC052C  B2      0C  0C      
    F8          0B  0B      
D80B7B                      
    2C          0A  0A      
    F8                      
    7B          09          
    2C        3900          
F6027B  BD    380C0C0C      
    2C          0B  0B      
EC05F8            0B        
    7B          0A  0A      
    2C                      
    F8          090A        
    7B        3900          
F6022C  D6    380C  0C      
    F8          0B  0B      
EC057B                      
    2C          0A  0A      
    F8                      
    7B          09          
    2C        3900          
8E017B  BD  10300E0C0C      
0E022C      13  0D  0B      
8E  F8      16  0C0B        
0E037B      15  0B  0A      
8E  2C      14  0A          
0E04F8      13  090A        
8E  7B      12  08          
EC052C        380C          
    F8          0B          
D80B7B                      
    2C          0A          
    F8                      
    7B  BB      09          
    2C  B9    3900          
F6027B  96    380C0C0C      
    2C          0B  0B      
EC05F8            0B        
    7B          0A  0A      
    2C                      
    F8          090A        
    7B        3900          
F6022C        380C          
    F8          0B          
EC057B                      
    2C          0A          
    F8                      
    7B  94      09          
    2C  92    3900          
DF037B  94    380F0C        
  052C  96      0E          
  07F8  98      0D0B        
  097B  9A      0C          
  0B2C  98      0B          
  0DF8  96      0A0A        
  0E7B  94      09          
EC052C  92      0C          
    F8  94      0B          
D80B7B  96                  
    2C  98      0A          
    F8  9A                  
    7B  98      09          
    2C  96    3900          
F6027B  94    380C0C        
    2C  92      0B          
EC05F8  94        0B        
    7B  96      0A          
    2C  98                  
    F8  9A      090A        
    7B  98    3900          
F6022C  96    380C          
    F8  94      0B          
EC057B  92                  
    2C  94      0A          
    F8  96                  
    7B  98      09          
    2C  9A    3900          
8E017B  98  10300E0C        
0E022C  96  13  0D          
8E  F8  94  16  0C0B        
0E037B  92  15  0B          
8E  2C  94  14  0A          
0E04F8  96  13  090A        
8E  7B  98  12  08          
EC052C  9A    380C          
    F8  98      0B          
D80B7B  96                  
    2C  94      0A          
    F8  92                  
    7B  94      09          
    2C  96    3900          
8E017B  98  10300E0C        
0E022C  9A  13  0D          
8E  F8  98  16  0C0B        
0E037B  96  15  0B          
8E  2C  94  14  0A          
0E04F8  92  13  090A        
8E  7B  94  12  08          
  012C  96  10  0E          
0E02F8  98  13  0D          
8E  7B  9A  16  0C          
0E032C  98  15  0B          
8E  F8  96  14  0A          
0E047B  94  13  09          
8E  2C  92  12  08          
DF031C  8E    380F070C      
  05EF001C01    0E  0B      
  077B01        0D          
  091C          0C  0A      
  0BEF00        0B          
  0D7B01        0A          
  0E1C          0908        
7004EF007E00    0C  0C      
    7B01FC      0B  0B      
E0081C                      
    EF00        0A  0A      
    7B01                    
    1C          0909        
    EF00      3900          
38027B0177    380C  0C      
    1C  EF      0B  0B      
7004EF00          0A        
    7B01        0A  0A      
    1C                      
    EF00        09          
    7B01      3900          
38021C        380C          
    EF00        0B          
70047B01                    
    1C          0A0B        
    EF00                    
    7B01ED      09          
    1C  EB    3900          
8E01EF00ED  10300E          
0E027B01EF  13  0D          
8E  1C  F1  16  0C          
0E03EF00F3  15  0B          
8E  7B01F1  14  0A          
0E041C  EF  13  09          
8E  EF00ED  12  08          
70  7B01EB    380C          
    1C  ED      0B          
E008EF00EF                  
    7B01F1      0A          
    1C  F3                  
    EF00F1      09          
    7B01EF    3900          
38021C  ED    380C          
    EF00EB      0B          
70047B01ED                  
    1C  EF      0A          
    EF00F1                  
    7B01F3      09          
    1C  F1    3900          
3802EF00EF    380C          
    7B01ED      0B          
70041C  EB                  
    EF00ED      0A          
    7B01EF                  
    1C  F1      09          
    EF00F3    3900          
DF037B01F1    380F          
  051C  EF      0E          
  07EF00ED      0D          
  097B01EB      0C          
  0B1C  ED      0B          
  0DEF00EF      0A          
  0E7B01F1      09          
70041C  F3      0C          
    EF00F1      0B          
E0087B01EF                  
    1C  ED      0A          
    EF00EB                  
    7B01ED      09          
    1C  EF    3900          
3802EF008E    380C  0C      
    7B011C01    0B  0B      
70041C                      
    EF00        0A  0A      
    7B01                    
    1C          09          
    EF00      3900          
38027B01      380C          
    1C          0B          
7004EF00                    
    7B01        0A          
    1C                      
    EF001A      09          
    7B0118    3900          
8E011C  7E0010300E  0C      
0E02EF00FC  13  0D  0B      
8E  7B01    16  0C          
0E031C      15  0B  0A      
8E  EF00    14  0A          
0E047B01    13  09          
8E  1C      12  08          
70  EF00      380C          
    7B01        0B          
E0081C                      
    EF00        0A          
    7B01                    
    1C  FA      09          
    EF00F8    3900          
38027B0177    380C  0C      
    1C  EF      0B  0B      
7004EF00                    
    7B01        0A  0A      
    1C                      
    EF00        09          
    7B01      3900          
38021C        380C          
    EF00        0B          
70047B01                    
    1C          0A          
    EF00                    
    7B01ED      09          
    1C  EB    3900          
DF033E  6B    380F070C      
  05FC00D6      0E  0B      
  07AC01        0D          
  093E          0C  0A      
  0BFC00        0B          
  0DAC01        0A          
  0E3E          0908        
F804FC00        0C          
    AC01        0B          
F0093E                      
    FC00        0A          
    AC01                    
    3E  D4      0909        
    FC00D2    3900          
7C02AC01D4    380C          
    3E  D6      0B          
F804FC00D8        0A        
    AC01DA      0A          
    3E  D8                  
    FC00D6      09          
    AC01D4    3900          
7C023E  77    380C  0C      
    FC00EF      0B  0B      
F804AC01                    
    3E          0A0B0A      
    FC00                    
    AC01        09          
    3E        3900          
8E01FC00    10300E          
0E02AC01    13  0D          
8E  3E      16  0C          
0E03FC00    15  0B          
8E  AC01    14  0A          
0E043E  ED  13  09          
8E  FC00EB  12  08          
F8  AC01ED    380C          
    3E  EF      0B          
F009FC00F1                  
    AC01F3      0A          
    3E  F1                  
    FC00EF      09          
    AC01ED    3900          
7C023E  6B    380C  0C      
    FC00D6      0B  0B      
F804AC01                    
    3E          0A  0A      
    FC00                    
    AC01        09          
    3E        3900          
7C02FC00      380C          
    AC01        0B          
F8043E                      
    FC00        0A          
    AC01                    
    3E  D4      09          
    FC00D2    3900          
DF03AC01D4    380F          
  053E  D6      0E          
  07FC00D8      0D          
  09AC01DA      0C          
  0B3E  D8      0B          
  0DFC00D6      0A          
  0EAC01D4      09          
F8043E  D2      0C          
    FC00D4      0B          
F009AC01D6                  
    3E  D8      0A          
    FC00DA                  
    AC01D8      09          
    3E  D6    3900          
7C02FC00D4    380C          
    AC01D2      0B          
F8043E  D4                  
    FC00D6      0A          
    AC01D8                  
    3E  DA      09          
    FC00D8    3900          
7C02AC01D6    380C          
    3E  D4      0B          
F804FC00D2                  
    AC01D4      0A          
    3E  D6                  
    FC00D8      09          
    AC01DA    3900          
8E013E  D8  10300E          
0E02FC00D6  13  0D          
8E  AC01D4  16  0C          
0E033E  D2  15  0B          
8E  FC00D4  14  0A          
0E04AC01D6  13  09          
8E  3E  D8  12  08          
F8  FC00DA    380C          
    AC01D8      0B          
F0093E  D6                  
    FC00D4      0A          
    AC01D2                  
    3E  D4      09          
    FC00D6    3900          
7C02AC017E    380C  0C      
    3E  FC      0B  0B      
F804FC00                    
    AC01        0A  0A      
    3E                      
    FC00        09          
    AC01      3900          
7C023E        380C          
    FC00        0B          
F804AC01                    
    3E          0A          
    FC00                    
    AC01FA      09          
    3E  F8    3900          
DF0365  B2    380F070C      
  051C  6501    0E  0B      
  07DF          0D          
  0965          0C  0A      
  0B1C          0B          
  0DDF          0A          
  0E65          0908        
94051C  9F00    0C  0C      
    DF  3E01    0B  0B      
280B65                      
    1C          0A  0A      
    DF                      
    65          0909        
    1C        3900          
CA02DF  8E00  380C  0C      
    65  1C01    0B  0B      
94051C            0A        
    DF          0A  0A      
    65                      
    1C          09          
    DF        3900          
CA0265        380C          
    1C          0B          
9405DF                      
    65          0A0B        
    1C                      
    DF  1A      09          
    65  18    3900          
8E011C  1A  10300E          
0E02DF  1C  13  0D          
8E  65  1E  16  0C          
0E031C  20  15  0B          
8E  DF  1E  14  0A          
0E0465  1C  13  09          
8E  1C  1A  12  08          
9405DF  18    380C          
    65  1A      0B          
280B1C  1C                  
    DF  1E      0A          
    65  20                  
    1C  1E      09          
    DF  1C    3900          
CA0265  1A    380C          
    1C  18      0B          
9405DF  1A                  
    65  1C      0A          
    1C  1E                  
    DF  20      09          
    65  1E    3900          
CA021C  1C    380C          
    DF  1A      0B          
940565  18                  
    1C  1A      0A          
    DF  1C                  
    65  1E      09          
    1C  20    3900          
DF03DF  8E00  380F  0C      
  0565  1C01    0E  0B      
  071C          0D          
  09DF          0C  0A      
  0B65          0B          
  0D1C          0A          
  0EDF          09          
940565          0C          
    1C          0B          
280BDF                      
    65          0A          
    1C                      
    DF  1A      09          
    65  18    3900          
CA021C  1A    380C          
    DF  1C      0B          
940565  1E                  
    1C  20      0A          
    DF  1E                  
    65  1C      09          
    1C  1A    3900          
CA02DF  9F00  380C  0C      
    65  3E01    0B  0B      
94051C                      
    DF          0A  0A      
    65                      
    1C          09          
    DF        3900          
8E0165      10300E          
0E021C      13  0D          
8E  DF      16  0C          
0E0365      15  0B          
8E  1C      14  0A          
0E04DF  3C  13  09          
8E  65  3A  12  08          
94051C  3C    380C          
    DF  3E      0B          
280B65  40                  
    1C  42      0A          
    DF  40                  
    65  3E      09          
    1C  3C    3900          
CA02DF  B200  380C  0C      
    65  6501    0B  0B      
94051C                      
    DF          0A  0A      
    65                      
    1C          09          
    DF        3900          
CA0265        380C          
    1C          0B          
9405DF                      
    65          0A          
    1C                      
    DF  63      09          
    65  61    3900          
DF037B  B200  380F070C      
  052C  6501    0E  0B      
  07F8          0D          
  097B          0C  0A      
  0B2C          0B          
  0DF8          0A          
  0E7B          0908        
EC052C          0C          
    F8          0B          
D80B7B                      
    2C          0A          
    F8                      
    7B  63      0909        
    2C  61    3900          
F602F8  63    380C          
    7B  65      0B          
EC052C  67        0A        
    F8  69      0A          
    7B  67                  
    2C  65      09          
    F8  63    3900          
F6027B  61    380C          
    2C  63      0B          
EC05F8  65                  
    7B  67      0A0B        
    2C  69                  
    F8  67      09          
    7B  65    3900          
8E012C  63  10300E          
0E02F8  61  13  0D          
8E  7B  63  16  0C          
0E032C  65  15  0B          
8E  F8  67  14  0A          
0E047B  69  13  09          
8E  2C  67  12  08          
EC05F8  65    380C          
    7B  63      0B          
D80B2C  61                  
    F8  63      0A          
    7B  65                  
    2C  67      09          
    F8  69    3900          
F6027B  BD00  380C  0C      
    2C  7B01    0B  0B      
EC05F8                      
    7B          0A  0A      
    2C                      
    F8          09          
    7B        3900          
F6022C        380C          
    F8          0B          
EC057B                      
    2C          0A          
    F8                      
    7B  79      09          
    2C  77    3900          
DF03F8  79    380F          
  057B  7B      0E          
  072C  7D      0D          
  09F8  7F      0C          
  0B7B  7D      0B          
  0D2C  7B      0A          
  0EF8  79      09          
EC057B  77      0C          
    2C  79      0B          
D80BF8  7B                  
    7B  7D      0A          
    2C  7F                  
    F8  7D      09          
    7B  7B    3900          
F6022C  79    380C          
    F8  77      0B          
EC057B  79                  
    2C  7B      0A          
    F8  7D                  
    7B  7F      09          
    2C  7D    3900          
F602F8  7B    380C          
    7B  79      0B          
EC052C  77                  
    F8  79      0A          
    7B  7B                  
    2C  7D      09          
    F8  7F    3900          
8E017B  7D  10300E          
0E022C  7B  13  0D          
8E  F8  79  16  0C          
0E037B  77  15  0B          
8E  2C  79  14  0A          
0E04F8  7B  13  09          
8E  7B  7D  12  08          
EC052C  7F    380C          
    F8  7D      0B          
D80B7B  7B                  
    2C  79      0A          
    F8  77                  
    7B  79      09          
    2C  7B    3900          
8E01F8  7D  10300E          
0E027B  7F  13  0D          
8E  2C  7D  16  0C          
0E03F8  7B  15  0B          
8E  7B  79  14  0A          
0E042C  77  13  09          
8E  F8  79  12  08          
  017B  7B  10  0E          
0E022C  7D  13  0D          
8E  F8  7F  16  0C          
0E037B  7D  15  0B          
8E  2C  7B  14  0A          
0E04F8  79  13  09          
8E  7B  77  12  08          
DF031C  8E00  380F070C      
  05EF001C01    0E  0B      
  077B01        0D          
  091C          0C  0A      
  0BEF00        0B          
  0D7B01        0A          
  0E1C          0908        
7004EF007E00    0C  0C      
    7B01FC      0B  0B      
E0081C                      
    EF00        0A  0A      
    7B01                    
    1C          0909        
    EF00      3900          
38027B0177    380C  0C      
    1C  EF      0B  0B      
7004EF00          0A        
    7B01        0A  0A      
    1C                      
    EF00        09          
    7B01      3900          
38021C        380C          
    EF00        0B          
70047B01                    
    1C          0A0B        
    EF00                    
    7B01ED      09          
    1C  EB    3900          
8E01EF00ED  10300E          
0E027B01EF  13  0D          
8E  1C  F1  16  0C          
0E03EF00F3  15  0B          
8E  7B01F1  14  0A          
0E041C  EF  13  09          
8E  EF00ED  12  08          
70  7B01EB    380C          
    1C  ED      0B          
E008EF00EF                  
    7B01F1      0A          
    1C  F3                  
    EF00F1      09          
    7B01EF    3900          
38021C  ED    380C          
    EF00EB      0B          
70047B01ED                  
    1C  EF      0A          
    EF00F1                  
    7B01F3      09          
    1C  F1    3900          
3802EF00EF    380C          
    7B01ED      0B          
70041C  EB                  
    EF00ED      0A          
    7B01EF                  
    1C  F1      09          
    EF00F3    3900          
DF037B01F1    380F          
  051C  EF      0E          
  07EF00ED      0D          
  097B01EB      0C          
  0B1C  ED      0B          
  0DEF00EF      0A          
  0E7B01F1      09          
70041C  F3      0C          
    EF00F1      0B          
E0087B01EF                  
    1C  ED      0A          
    EF00EB                  
    7B01ED      09          
    1C  EF    3900          
3802EF008E    380C  0C      
    7B011C01    0B  0B      
70041C                      
    EF00        0A  0A      
    7B01                    
    1C          09          
    EF00      3900          
38027B01      380C          
    1C          0B          
7004EF00                    
    7B01        0A          
    1C                      
    EF001A      09          
    7B0118    3900          
8E011C  7E0010300E  0C      
0E02EF00FC  13  0D  0B      
8E  7B01    16  0C          
0E031C      15  0B  0A      
8E  EF00    14  0A          
0E047B01    13  09          
8E  1C      12  08          
70  EF00      380C          
    7B01        0B          
E0081C                      
    EF00        0A          
    7B01                    
    1C  FA      09          
    EF00F8    3900          
38027B0177    380C  0C      
    1C  EF      0B  0B      
7004EF00                    
    7B01        0A  0A      
    1C                      
    EF00        09          
    7B01      3900          
38021C        380C          
    EF00        0B          
70047B01                    
    1C          0A          
    EF00                    
    7B01ED      09          
    1C  EB    3900          
DF033E  6B    380F070C      
  05FC00D6      0E  0B      
  07AC01        0D          
  093E          0C  0A      
  0BFC00        0B          
  0DAC01        0A          
  0E3E          0908        
F804FC00        0C          
    AC01        0B          
F0093E                      
    FC00        0A          
    AC01                    
    3E  D4      0909        
    FC00D2    3900          
7C02AC01D4    380C          
    3E  D6      0B          
F804FC00D8        0A        
    AC01DA      0A          
    3E  D8                  
    FC00D6      09          
    AC01D4    3900          
7C023E  77    380C  0C      
    FC00EF      0B  0B      
F804AC01                    
    3E          0A0B0A      
    FC00                    
    AC01        09          
    3E        3900          
8E01FC00    10300E          
0E02AC01    13  0D          
8E  3E      16  0C          
0E03FC00    15  0B          
8E  AC01    14  0A          
0E043E  ED  13  09          
8E  FC00EB  12  08          
F8  AC01ED    380C          
    3E  EF      0B          
F009FC00F1                  
    AC01F3      0A          
    3E  F1                  
    FC00EF      09          
    AC01ED    3900          
7C023E  6B    380C  0C      
    FC00D6      0B  0B      
F804AC01                    
    3E          0A  0A      
    FC00                    
    AC01        09          
    3E        3900          
7C02FC00      380C          
    AC01        0B          
F8043E                      
    FC00        0A          
    AC01                    
    3E  D4      09          
    FC00D2    3900          
DF03AC01D4    380F          
  053E  D6      0E          
  07FC00D8      0D          
  09AC01DA      0C          
  0B3E  D8      0B          
  0DFC00D6      0A          
  0EAC01D4      09          
F8043E  D2      0C          
    FC00D4      0B          
F009AC01D6                  
    3E  D8      0A          
    FC00DA                  
    AC01D8      09          
    3E  D6    3900          
7C02FC00D4    380C          
    AC01D2      0B          
F8043E  D4                  
    FC00D6      0A          
    AC01D8                  
    3E  DA      09          
    FC00D8    3900          
7C02AC01D6    380C          
    3E  D4      0B          
F804FC00D2                  
    AC01D4      0A          
    3E  D6                  
    FC00D8      09          
    AC01DA    3900          
8E013E  D8  10300E          
0E02FC00D6  13  0D          
8E  AC01D4  16  0C          
0E033E  D2  15  0B          
8E  FC00D4  14  0A          
0E04AC01D6  13  09          
8E  3E  D8  12  08          
F8  FC00DA    380C          
    AC01D8      0B          
F0093E  D6                  
    FC00D4      0A          
    AC01D2                  
    3E  D4      09          
    FC00D6    3900          
7C02AC017E    380C  0C      
    3E  FC      0B  0B      
F804FC00                    
    AC01        0A  0A      
    3E                      
    FC00        09          
    AC01      3900          
7C023E        380C          
    FC00        0B          
F804AC01                    
    3E          0A          
    FC00                    
    AC01FA      09          
    3E  F8    3900          
DF0365  B2    380F070C      
  051C  6501    0E  0B      
  07DF          0D          
  0965          0C  0A      
  0B1C          0B          
  0DDF          0A          
  0E65          0908        
94051C  9F00    0C  0C      
    DF  3E01    0B  0B      
280B65                      
    1C          0A  0A      
    DF                      
    65          0909        
    1C        3900          
CA02DF  8E00  380C  0C      
    65  1C01    0B  0B      
94051C            0A        
    DF          0A  0A      
    65                      
    1C          09          
    DF        3900          
CA0265        380C          
    1C          0B          
9405DF                      
    65          0A0B        
    1C                      
    DF  1A      09          
    65  18    3900          
8E011C  1A  10300E          
0E02DF  1C  13  0D          
8E  65  1E  16  0C          
0E031C  20  15  0B          
8E  DF  1E  14  0A          
0E0465  1C  13  09          
8E  1C  1A  12  08          
9405DF  18    380C          
    65  1A      0B          
280B1C  1C                  
    DF  1E      0A          
    65  20                  
    1C  1E      09          
    DF  1C    3900          
CA0265  1A    380C          
    1C  18      0B          
9405DF  1A                  
    65  1C      0A          
    1C  1E                  
    DF  20      09          
    65  1E    3900          
CA021C  1C    380C          
    DF  1A      0B          
940565  18                  
    1C  1A      0A          
    DF  1C                  
    65  1E      09          
    1C  20    3900          
DF03DF  8E00  380F  0C      
  0565  1C01    0E  0B      
  071C          0D          
  09DF          0C  0A      
  0B65          0B          
  0D1C          0A          
  0EDF          09          
940565          0C          
    1C          0B          
280BDF                      
    65          0A          
    1C                      
    DF  1A      09          
    65  18    3900          
CA021C  1A    380C          
    DF  1C      0B          
940565  1E                  
    1C  20      0A          
    DF  1E                  
    65  1C      09          
    1C  1A    3900          
CA02DF  9F00  380C  0C      
    65  3E01    0B  0B      
94051C                      
    DF          0A  0A      
    65                      
    1C          09          
    DF        3900          
8E0165      10300E          
0E021C      13  0D          
8E  DF      16  0C          
0E0365      15  0B          
8E  1C      14  0A          
0E04DF  3C  13  09          
8E  65  3A  12  08          
94051C  3C    380C          
    DF  3E      0B          
280B65  40                  
    1C  42      0A          
    DF  40                  
    65  3E      09          
    1C  3C    3900          
CA02DF  B200  380C  0C      
    65  6501    0B  0B      
94051C                      
    DF          0A  0A      
    65                      
    1C          09          
    DF        3900          
CA0265        380C          
    1C          0B          
9405DF                      
    65          0A          
    1C                      
    DF  63      09          
    65  61    3900          
DF037B  B200  380F070C      
  052C  6501    0E  0B      
  07F8          0D          
  097B          0C  0A      
  0B2C          0B          
  0DF8          0A          
  0E7B          0908        
EC052C          0C          
    F8          0B          
D80B7B                      
    2C          0A          
    F8                      
    7B  63      0909        
    2C  61    3900          
F602F8  63    380C          
    7B  65      0B          
EC052C  67        0A        
    F8  69      0A          
    7B  67                  
    2C  65      09          
    F8  63    3900          
F6027B  61    380C          
    2C  63      0B          
EC05F8  65                  
    7B  67      0A0B        
    2C  69                  
    F8  67      09          
    7B  65    3900          
8E012C  63  10300E          
0E02F8  61  13  0D          
8E  7B  63  16  0C          
0E032C  65  15  0B          
8E  F8  67  14  0A          
0E047B  69  13  09          
8E  2C  67  12  08          
EC05F8  65    380C          
    7B  63      0B          
D80B2C  61                  
    F8  63      0A          
    7B  65                  
    2C  67      09          
    F8  69    3900          
F6027B  BD00  380C  0C      
    2C  7B01    0B  0B      
EC05F8                      
    7B          0A  0A      
    2C                      
    F8          09          
    7B        3900          
F6022C        380C          
    F8          0B          
EC057B                      
    2C          0A          
    F8                      
    7B  79      09          
    2C  77    3900          
DF03F8  79    380F          
  057B  7B      0E          
  072C  7D      0D          
  09F8  7F      0C          
  0B7B  7D      0B          
  0D2C  7B      0A          
  0EF8  79      09          
EC057B  77      0C          
    2C  79      0B          
D80BF8  7B                  
    7B  7D      0A          
    2C  7F                  
    F8  7D      09          
    7B  7B    3900          
F6022C  79    380C          
    F8  77      0B          
EC057B  79                  
    2C  7B      0A          
    F8  7D                  
    7B  7F      09          
    2C  7D    3900          
F602F8  7B    380C          
    7B  79      0B          
EC052C  77                  
    F8  79      0A          
    7B  7B                  
    2C  7D      09          
    F8  7F    3900          
8E017B  7D  10300E          
0E022C  7B  13  0D          
8E  F8  79  16  0C          
0E037B  77  15  0B          
8E  2C  79  14  0A          
0E04F8  7B  13  09          
8E  7B  7D  12  08          
EC052C  7F    380C          
    F8  7D      0B          
D80B7B  7B                  
    2C  79      0A          
    F8  77                  
    7B  79      09          
    2C  7B    3900          
8E01F8  7D  10300E          
0E027B  7F  13  0D          
8E  2C  7D  16  0C          
0E03F8  7B  15  0B          
8E  7B  79  14  0A          
0E042C  77  13  09          
8E  F8  79  12  08          
  017B  7B  10  0E          
0E022C  7D  13  0D          
8E  F8  7F  16  0C          
0E037B  7D  15  0B          
8E  2C  7B  14  0A          
0E04F8  79  13  09          
8E  7B  77  12  08          
DF031C    00  380F0C0C      
  05EF00EF      0E  0B      
  077B01        0D0B        
  091C          0C  0A      
  0BEF00        0B          
  0D7B01        0A0A        
  0E1C          09          
7004EF00BD      0C  09      
    7B017B01    0B          
E0081C              08      
    EF00        0A          
    7B01                    
    1C          09  07      
    EF00      3900          
38021C01BD00  380C0C09      
    EF007B01    0B          
70047B01          0B08      
    1C          0A          
    EF00                    
    7B01        090A07      
    1C        3900          
3802EF006B00  380C  0C      
    7B01D6      0B  0B      
70041C                      
    EF00        0A  0A      
    7B01                    
    1C          09          
    EF00      3900          
8E011C01BD  10300E0C09      
0E02EF007B0113  0D          
8E  7B01    16  0C0B08      
0E031C      15  0B          
8E  EF00    14  0A          
0E047B01    13  090A07      
8E  1C      12  08          
70  EF00BD00  380C  09      
    7B017B01    0B          
E0081C              08      
    EF00        0A          
    7B01                    
    1C          09  07      
    EF00      3900          
38021C017700  380C0C0C      
    EF00EF      0B  0B      
70047B01          0B        
    1C          0A  0A      
    EF00                    
    7B01        090A        
    1C        3900          
3802EF00      380C          
    7B01        0B          
70041C                      
    EF00        0A          
    7B01                    
    1C  ED      09          
    EF00EB    3900          
DF031C01ED    380F0C        
  05EF00EF      0E          
  077B01F1      0D0B        
  091C  F3      0C          
  0BEF00F1      0B          
  0D7B01EF      0A0A        
  0E1C  ED      09          
7004EF00EB      0C          
    7B01ED      0B          
E0081C  EF                  
    EF00F1      0A          
    7B01F3                  
    1C  F1      09          
[...]
    AC017A                  
    3E  7C      09          
    FC007E    3900          
7C023E0180    380C0C        
    FC0082      0B          
F804AC0180        0B        
    3E  7E      0A          
    FC007C                  
    AC017A      090A        
    3E  7C    3900          
7C02FC007E    380C          
    AC0180      0B          
F8043E  82                  
    FC0080      0A          
    AC017E                  
    3E  7C      09          
    FC007A    3900          
DF036501BD    380F0C0C      
  051C          0E  0B      
  07DF          0D0B        
  0965          0C  0A      
  0B1C          0B          
  0DDF          0A0A        
  0E65          09          
94051C  B2      0C  0C      
    DF          0B  0B      
280B65                      
    1C          0A  0A      
    DF                      
    65          09          
    1C        3900          
CA0265  BD    380C0C0C      
    1C          0B  0B      
9405DF            0B        
    65          0A  0A      
    1C                      
    DF          090A        
    65        3900          
CA021C  D6    380C  0C      
    DF          0B  0B      
940565                      
    1C          0A  0A      
    DF                      
    65          09          
    1C        3900          
8E0165  BD  10300E0C0C      
0E021C      13  0D  0B      
8E  DF      16  0C0B        
0E0365      15  0B  0A      
8E  1C      14  0A          
0E04DF      13  090A        
8E  65      12  08          
94051C        380C          
    DF          0B          
280B65                      
    1C          0A          
    DF                      
    65  BB      09          
    1C  B9    3900          
CA0265  8E    380C0C0C      
    1C          0B  0B      
9405DF            0B        
    65          0A  0A      
    1C                      
    DF          090A        
    65        3900          
CA021C        380C          
    DF          0B          
940565                      
    1C          0A          
    DF                      
    65  8C      09          
    1C  8A    3900          
DF0365  8C    380F0C        
  051C  8E      0E          
  07DF  90      0D0B        
  0965  92      0C          
  0B1C  90      0B          
  0DDF  8E      0A0A        
  0E65  8C      09          
94051C  8A      0C          
    DF  8C      0B          
280B65  8E                  
    1C  90      0A          
    DF  92                  
    65  90      09          
    1C  8E    3900          
CA0265  8C    380C0C        
    1C  8A      0B          
9405DF  8C        0B        
    65  8E      0A          
    1C  90                  
    DF  92      090A        
    65  90    3900          
CA021C  8E    380C          
    DF  8C      0B          
940565  8A                  
    1C  8C      0A          
    DF  8E                  
    65  90      09          
    1C  92    3900          
8E0165  90  10300E0C        
0E021C  8E  13  0D          
8E  DF  8C  16  0C0B        
0E0365  8A  15  0B          
8E  1C  8C  14  0A          
0E04DF  8E  13  090A        
8E  65  90  12  08          
94051C  92    380C          
    DF  90      0B          
280B65  8E                  
    1C  8C      0A          
    DF  8A                  
    65  8C      09          
    1C  8E    3900          
CA0265  90    380C0C        
    1C  92      0B          
9405DF  90        0B        
    65  8E      0A          
    1C  8C                  
    DF  8A      090A        
    65  8C    3900          
CA021C  8E    380C          
    DF  90      0B          
940565  92                  
    1C  90      0A          
    DF  8E                  
    65  8C      09          
    1C  8A    3900          
DF037B  BD    380F0C0C      
  052C          0E  0B      
  07F8          0D0B        
  097B          0C  0A      
  0B2C          0B          
  0DF8          0A0A        
  0E7B          09          
EC052C  B2      0C  0C      
    F8          0B  0B      
D80B7B                      
    2C          0A  0A      
    F8                      
    7B          09          
    2C        3900          
F6027B  BD    380C0C0C      
    2C          0B  0B      
EC05F8            0B        
    7B          0A  0A      
    2C                      
    F8          090A        
    7B        3900          
F6022C  D6    380C  0C      
    F8          0B  0B      
EC057B                      
    2C          0A  0A      
    F8                      
    7B          09          
    2C        3900          
8E017B  BD  10300E0C0C      
0E022C      13  0D  0B      
8E  F8      16  0C0B        
0E037B      15  0B  0A      
8E  2C      14  0A          
0E04F8      13  090A        
8E  7B      12  08          
EC052C        380C          
    F8          0B          
D80B7B                      
    2C          0A          
    F8                      
    7B  BB      09          
    2C  B9    3900          
F6027B  96    380C0C0C      
    2C          0B  0B      
EC05F8            0B        
    7B          0A  0A      
    2C                      
    F8          090A        
    7B        3900          
F6022C        380C          
    F8          0B          
EC057B                      
    2C          0A          
    F8                      
    7B  94      09          
    2C  92    3900          
DF037B  94    380F0C        
  052C  96      0E          
  07F8  98      0D0B        
  097B  9A      0C          
  0B2C  98      0B          
  0DF8  96      0A0A        
  0E7B  94      09          
EC052C  92      0C          
    F8  94      0B          
D80B7B  96                  
    2C  98      0A          
    F8  9A                  
    7B  98      09          
    2C  96    3900          
F6027B  94    380C0C        
    2C  92      0B          
EC05F8  94        0B        
    7B  96      0A          
    2C  98                  
    F8  9A      090A        
    7B  98    3900          
F6022C  96    380C          
    F8  94      0B          
EC057B  92                  
    2C  94      0A          
    F8  96                  
    7B  98      09          
    2C  9A    3900          
8E017B  98  10300E0C        
0E022C  96  13  0D          
8E  F8  94  16  0C0B        
0E037B  92  15  0B          
8E  2C  94  14  0A          
0E04F8  96  13  090A        
8E  7B  98  12  08          
EC052C  9A    380C          
    F8  98      0B          
D80B7B  96                  
    2C  94      0A          
    F8  92                  
    7B  94      09          
    2C  96    3900          
8E017B  98  10300E0C        
0E022C  9A  13  0D          
8E  F8  98  16  0C0B        
0E037B  96  15  0B          
8E  2C  94  14  0A          
0E04F8  92  13  090A        
8E  7B  94  12  08          
  012C  96  10  0E          
0E02F8  98  13  0D          
8E  7B  9A  16  0C          
0E032C  98  15  0B          
8E  F8  96  14  0A          
0E047B  94  13  09          
8E  2C  92  12  08          
C2030B  B2    380F0C0C      
  05E100        0E  0B      
  076501        0D0B        
  090B          0C  0A      
  0BE100        0B          
  0D6501        0A0A        
  0E0B          09          
2C04E100A8      0C  0C      
    6501        0B  0B      
58080B                      
    E100        0A  0A      
    6501                    
    0B          09          
    E100      3900          
16020B01B2    380C0C0C      
    E100        0B  0B      
2C046501          0B        
    0B          0A  0A      
    E100                    
    6501        090A        
    0B        3900          
1602E100C8    380C  0C      
    6501        0B  0B      
2C040B                      
    E100        0A  0A      
    6501                    
    0B          09          
    E100      3900          
85010B01B2  10300E0C0C      
0502E100    13  0D  0B      
85  6501    16  0C0B        
05030B      15  0B  0A      
85  E100    14  0A          
05046501    13  090A        
85  0B      12  08          
2C  E100      380C          
    6501        0B          
58080B                      
    E100        0A          
    6501                    
    0B  B0      09          
    E100AE    3900          
16020B0170    380C0C0C      
    E100        0B  0B      
2C046501          0B        
    0B          0A  0A      
    E100                    
    6501        090A        
    0B        3900          
1602E100      380C          
    6501        0B          
2C040B                      
    E100        0A          
    6501                    
    0B  6E      09          
    E1006C    3900          
C2030B016E    380F0C        
  05E10070      0E          
  07650172      0D0B        
  090B  74      0C          
  0BE10072      0B          
  0D650170      0A0A        
  0E0B  6E      09          
2C04E1006C      0C          
    65016E      0B          
58080B  70                  
    E10072      0A          
    650174                  
    0B  72      09          
    E10070    3900          
16020B016E    380C0C        
    E1006C      0B          
2C0465016E        0B        
    0B  70      0A          
    E10072                  
    650174      090A        
    0B  72    3900          
1602E10070    380C          
    65016E      0B          
2C040B  6C                  
    E1006E      0A          
    650170                  
    0B  72      09          
    E10074    3900          
85010B0172  10300E0C        
0502E10070  13  0D          
85  65016E  16  0C0B        
05030B  6C  15  0B          
85  E1006E  14  0A          
0504650170  13  090A        
85  0B  72  12  08          
2C  E10074    380C          
    650172      0B          
58080B  70                  
    E1006E      0A          
    65016C                  
    0B  6E      09          
    E10070    3900          
16020B0172    380C0C        
    E10074      0B          
2C04650172        0B        
    0B  70      0A          
    E1006E                  
    65016C      090A        
    0B  6E    3900          
1602E10070    380C          
    650172      0B          
2C040B  74                  
    E10072      0A          
    650170                  
    0B  6E      09          
    E1006C    3900          
C2032C01B2    380F0C0C      
  05EF00        0E  0B      
  079001        0D0B        
  092C          0C  0A      
  0BEF00        0B          
  0D9001        0A0A        
  0E2C          09          
B004EF00A8      0C  0C      
    9001        0B  0B      
60092C                      
    EF00        0A  0A      
    9001                    
    2C          09          
    EF00      3900          
58022C01B2    380C0C0C      
    EF00        0B  0B      
B0049001          0B        
    2C          0A  0A      
    EF00                    
    9001        090A        
    2C        3900          
5802EF00C8    380C  0C      
    9001        0B  0B      
B0042C                      
    EF00        0A  0A      
    9001                    
    2C          09          
    EF00      3900          
85012C01B2  10300E0C0C      
0502EF00    13  0D  0B      
85  9001    16  0C0B        
05032C      15  0B  0A      
85  EF00    14  0A          
05049001    13  090A        
85  2C      12  08          
B0  EF00      380C          
    9001        0B          
60092C                      
    EF00        0A          
    9001                    
    2C  B0      09          
    EF00AE    3900          
58022C0177    380C0C0C      
    EF00        0B  0B      
B0049001          0B        
    2C          0A  0A      
    EF00                    
    9001        090A        
    2C        3900          
5802EF00      380C          
    9001        0B          
B0042C                      
    EF00        0A          
    9001                    
    2C  75      09          
    EF0073    3900          
C2032C0175    380F0C        
  05EF0077      0E          
  07900179      0D0B        
  092C  7B      0C          
  0BEF0079      0B          
  0D900177      0A0A        
  0E2C  75      09          
B004EF0073      0C          
    900175      0B          
60092C  77                  
    EF0079      0A          
    90017B                  
    2C  79      09          
    EF0077    3900          
58022C0175    380C0C        
    EF0073      0B          
B004900175        0B        
    2C  77      0A          
    EF0079                  
    90017B      090A        
    2C  79    3900          
5802EF0077    380C          
    900175      0B          
B0042C  73                  
    EF0075      0A          
    900177                  
    2C  79      09          
    EF007B    3900          
85012C0179  10300E0C        
0502EF0077  13  0D          
85  900175  16  0C0B        
05032C  73  15  0B          
85  EF0075  14  0A          
0504900177  13  090A        
85  2C  79  12  08          
B0  EF007B    380C          
    900179      0B          
60092C  77                  
    EF0075      0A          
    900173                  
    2C  75      09          
    EF0077    3900          
58022C0179    380C0C        
    EF007B      0B          
B004900179        0B        
    2C  77      0A          
    EF0075                  
    900173      090A        
    2C  75    3900          
5802EF0077    380C          
    900179      0B          
B0042C  7B                  
    EF0079      0A          
    900177                  
    2C  75      09          
    EF0073    3900          
C2035101B2    380F0C0C      
  050B          0E  0B      
  07C2          0D0B        
  0951          0C  0A      
  0B0B          0B          
  0DC2          0A0A        
  0E51          09          
44050B  A8      0C  0C      
    C2          0B  0B      
880A51                      
    0B          0A  0A      
    C2                      
    51          09          
    0B        3900          
A20251  B2    380C0C0C      
    0B          0B  0B      
4405C2            0B        
    51          0A  0A      
    0B                      
    C2          090A        
    51        3900          
A2020B  C8    380C  0C      
    C2          0B  0B      
440551                      
    0B          0A  0A      
    C2                      
    51          09          
    0B        3900          
850151  B2  10300E0C0C      
05020B      13  0D  0B      
85  C2      16  0C0B        
050351      15  0B  0A      
85  0B      14  0A          
0504C2      13  090A        
85  51      12  08          
44050B        380C          
    C2          0B          
880A51                      
    0B          0A          
    C2                      
    51  B0      09          
    0B  AE    3900          
A20251  85    380C0C0C      
    0B          0B  0B      
4405C2            0B        
    51          0A  0A      
    0B                      
    C2          090A        
    51        3900          
A2020B        380C          
    C2          0B          
440551                      
    0B          0A          
    C2                      
    51  83      09          
    0B  81    3900          
C20351  83    380F0C        
  050B  85      0E          
  07C2  87      0D0B        
  0951  89      0C          
  0B0B  87      0B          
  0DC2  85      0A0A        
  0E51  83      09          
44050B  81      0C          
    C2  83      0B          
880A51  85                  
    0B  87      0A          
    C2  89                  
    51  87      09          
    0B  85    3900          
A20251  83    380C0C        
    0B  81      0B          
4405C2  83        0B        
    51  85      0A          
    0B  87                  
    C2  89      090A        
    51  87    3900          
A2020B  85    380C          
    C2  83      0B          
440551  81                  
    0B  83      0A          
    C2  85                  
    51  87      09          
    0B  89    3900          
850151  87  10300E0C        
05020B  85  13  0D          
85  C2  83  16  0C0B        
050351  81  15  0B          
85  0B  83  14  0A          
0504C2  85  13  090A        
85  51  87  12  08          
44050B  89    380C          
    C2  87      0B          
880A51  85                  
    0B  83      0A          
    C2  81                  
    51  83      09          
    0B  85    3900          
A20251  87    380C0C        
    0B  89      0B          
4405C2  87        0B        
    51  85      0A          
    0B  83                  
    C2  81      090A        
    51  83    3900          
A2020B  85    380C          
    C2  87      0B          
440551  89                  
    0B  87      0A          
    C2  85                  
    51  83      09          
    0B  81    3900          
C20365  B2    380F0C0C      
  051C          0E  0B      
  07DF          0D0B        
  0965          0C  0A      
  0B1C          0B          
  0DDF          0A0A        
  0E65          09          
94051C  A8      0C  0C      
    DF          0B  0B      
280B65                      
    1C          0A  0A      
    DF                      
    65          09          
    1C        3900          
CA0265  B2    380C0C0C      
    1C          0B  0B      
9405DF            0B        
    65          0A  0A      
    1C                      
    DF          090A        
    65        3900          
CA021C  C8    380C  0C      
    DF          0B  0B      
940565                      
    1C          0A  0A      
    DF                      
    65          09          
    1C        3900          
850165  B2  10300E0C0C      
05021C      13  0D  0B      
85  DF      16  0C0B        
050365      15  0B  0A      
85  1C      14  0A          
0504DF      13  090A        
85  65      12  08          
94051C        380C          
    DF          0B          
280B65                      
    1C          0A          
    DF                      
    65  B0      09          
    1C  AE    3900          
CA0265  8E    380C0C0C      
    1C          0B  0B      
9405DF            0B        
    65          0A  0A      
    1C                      
    DF          090A        
    65        3900          
CA021C        380C          
    DF          0B          
940565                      
    1C          0A          
    DF                      
    65  8C      09          
    1C  8A    3900          
C20365  8C    380F0C        
  051C  8E      0E          
  07DF  90      0D0B        
  0965  92      0C          
  0B1C  90      0B          
  0DDF  8E      0A0A        
  0E65  8C      09          
94051C  8A      0C          
    DF  8C      0B          
280B65  8E                  
    1C  90      0A          
    DF  92                  
    65  90      09          
    1C  8E    3900          
CA0265  8C    380C0C        
    1C  8A      0B          
9405DF  8C        0B        
    65  8E      0A          
    1C  90                  
    DF  92      090A        
    65  90    3900          
CA021C  8E    380C          
    DF  8C      0B          
940565  8A                  
    1C  8C      0A          
    DF  8E                  
    65  90      09          
    1C  92    3900          
850165  90  10300E0C        
05021C  8E  13  0D          
85  DF  8C  16  0C0B        
050365  8A  15  0B          
85  1C  8C  14  0A          
0504DF  8E  13  090A        
85  65  90  12  08          
94051C  92    380C          
    DF  90      0B          
280B65  8E                  
    1C  8C      0A          
    DF  8A                  
    65  8C      09          
    1C  8E    3900          
850165  90  10300E0C        
05021C  92  13  0D          
85  DF  90  16  0C0B        
050365  8E  15  0B          
85  1C  8C  14  0A          
0504DF  8A  13  090A        
85  65  8C  12  08          
  011C  8E  10  0E          
0502DF  90  13  0D          
85  65  92  16  0C          
05031C  90  15  0B          
85  DF  8E  14  0A          
050465  8C  13  09          
85  1C  8A  12  08          
