000102030405060708090a0b0c0d
900151010A01  391B0C0C32  0E
                1F          
                1C          
                16          
                14          
                12          
                10          
=
                  0B0B      
=
=
=
=
=
=
=
=
                  0A0A      
=
=
=
=
=
=
=
=
=
=
=
                  0909      
=
=
=
=
=
=
=
=
=
                  0808      
=
=
=
                  0707      
=
=
                  0606      
=
=
=
=
=
=
=
=
=
=
=
=
=
    90  51        0C0C      
=
=
=
=
=
=
=
                  0B0B      
=
=
=
=
=
=
=
=
                  0A0A      
=
=
=
=
=
=
=
=
=
=
=
                  0909      
=
=
=
=
=
=
C2  65  2C      1B0C0C38  0E
                1F          
                1C          
                16          
                14          
                12          
                10          
=
                  0B0B      
=
=
=
=
=
=
=
=
                  0A0A      
=
=
=
=
=
=
    90  51        0C0C      
=
=
=
=
=
=
=
                  0B0B      
=
=
=
    65  2C        0C0C      
=
=
=
=
=
=
=
                  0B0B      
=
=
=
=
=
=
=
=
                  0A0A      
=
=
=
=
=
=
=
=
=
=
=
                  0909      
=
=
=
=
=
=
=
=
=
                  0808      
=
=
=
                  0707      
=
=
                  0606      
=
=
=
=
=
=
=
=
=
=
=
=
=
F8  90  51      1B0C0C3F  0E
                1F          
                1C          
                16          
                14          
                12          
                10          
=
                  0B0B      
=
=
=
=
=
=
=
=
                  0A0A      
=
=
=
=
=
=
=
=
=
=
=
                  0909      
=
=
=
=
=
=
=
=
=
                  0808      
=
=
=
                  0707      
=
=
                  0606      
=
=
=
=
=
=
=
=
=
=
=
=
=
=
=
=
=
=
=
=
=
=
=
=
=
=
=
=
=
=
=
=
=
=
=
=
=
=
=
=
=
=
=
=
=
=
=
=
=
=
=
=
=
=
=
=
=
=
=
=
=
=
=
=
=
=
=
=
=
=
=
=
=
=
=
=
=
=
=
=
=
=
=
=
=
=
=
=
=
=
=
=
=
=
=
=
=
=
=
=
=
=
=
=
=
=
=
=
=
    65  2C        0C0C      
=
=
=
=
=
=
=
                  0B0B      
=
=
=
=
=
=
=
=
                  0A0A      
=
=
=
=
=
=
=
=
=
=
=
                  0909      
=
=
=
=
=
=
90  51  0A      1B0C0C32  0E
                1F          
                1C          
                16          
                14          
                12          
                10          
=
                  0B0B      
=
=
=
=
=
=
=
=
                  0A0A      
=
=
=
=
=
=
=
=
=
=
=
                  0909      
=
=
=
=
=
=
=
=
=
                  0808      
=
=
=
                  0707      
=
=
                  0606      
=
=
=
=
=
=
=
=
=
=
=
=
=
    90  51        0C0C      
=
=
=
=
=
=
=
                  0B0B      
=
=
=
=
=
=
=
=
                  0A0A      
=
=
=
=
=
=
=
=
=
=
=
                  0909      
=
=
=
=
=
=
C2  65  2C      1B0C0C38  0E
                1F          
                1C          
                16          
                14          
                12          
                10          
=
                  0B0B      
=
=
=
=
=
=
=
=
                  0A0A      
=
=
=
=
=
=
    90  51        0C0C      
=
=
=
=
=
=
=
                  0B0B      
=
=
=
    0A  C800      0C0C      
=
=
=
=
=
=
=
                  0B0B      
=
=
=
=
=
=
=
=
                  0A0A      
=
=
=
=
=
=
=
=
=
=
=
                  0909      
=
=
=
=
=
=
=
=
=
                  0808      
=
=
=
                  0707      
=
=
                  0606      
=
=
=
=
=
=
=
=
=
=
=
=
=
F8  51  FC      1B0C0C3F  0E
                1F          
                1C          
                16          
                14          
                12          
                10          
=
                  0B0B      
=
=
=
=
=
=
=
=
                  0A0A      
=
=
=
=
=
=
=
=
=
=
=
                  0909      
=
=
=
=
=
=
=
=
=
                  0808      
=
=
=
                  0707      
=
=
                  0606      
=
=
=
=
=
=
=
=
=
=
=
=
=
=
=
=
=
=
=
=
=
=
=
=
=
=
=
=
=
=
=
=
=
=
=
=
=
=
=
=
=
=
=
=
=
=
=
=
=
=
=
=
=
=
=
=
=
=
=
=
=
=
=
=
=
=
=
=
=
=
=
=
=
=
=
=
=
=
=
=
=
=
=
=
=
=
=
=
=
=
=
=
=
=
=
=
=
=
=
=
=
=
=
=
=
=
=
=
=
    65  2C01      0C0C      
=
=
=
=
=
=
=
                  0B0B      
=
=
=
=
=
=
=
=
                  0A0A      
=
=
=
=
=
=
=
=
=
=
=
                  0909      
=
=
=
=
=
=
90  51  0A      1B0C0C32  0E
                1F          
                1C          
                16          
                14          
                12          
                10          
=
                  0B0B      
=
=
=
=
=
=
=
=
                  0A0A      
=
=
=
=
=
=
=
=
=
=
=
                  0909      
=
=
=
=
=
=
=
=
=
                  0808      
=
=
=
                  0707      
=
=
                  0606      
=
=
=
=
=
=
=
=
=
=
=
=
=
    90  51        0C0C      
=
=
=
=
=
=
=
                  0B0B      
=
=
=
=
=
=
=
=
                  0A0A      
=
=
=
=
=
=
=
=
=
=
=
                  0909      
=
=
=
=
=
=
C2  65  2C      1B0C0C38  0E
                1F          
                1C          
                16          
                14          
                12          
                10          
=
                  0B0B      
=
=
=
=
=
=
=
=
                  0A0A      
=
=
=
=
=
=
    90  51        0C0C      
=
=
=
=
=
=
=
                  0B0B      
=
=
=
    65  2C        0C0C      
=
=
=
=
=
=
=
                  0B0B      
=
=
=
=
=
=
=
=
                  0A0A      
=
=
=
=
=
=
=
=
=
=
=
                  0909      
=
=
=
=
=
=
=
=
=
                  0808      
=
=
=
                  0707      
=
=
                  0606      
=
=
=
=
=
=
=
=
=
=
=
=
=
F8  90  51      1B0C0C3F  0E
                1F          
                1C          
                16          
                14          
                12          
                10          
=
                  0B0B      
=
=
=
=
=
=
=
=
                  0A0A      
=
=
=
=
=
=
=
=
=
=
=
                  0909      
=
=
=
=
=
=
=
=
=
                  0808      
=
=
=
                  0707      
=
=
                  0606      
=
=
=
=
=
=
=
=
=
=
=
=
=
=
=
=
=
=
=
=
=
=
=
=
=
=
=
=
=
=
=
=
=
=
=
=
=
=
=
=
=
=
=
=
=
=
=
=
=
=
=
=
=
=
=
=
=
=
=
=
=
=
=
=
=
=
=
=
=
=
=
=
=
=
=
=
=
=
=
=
=
=
=
=
=
=
=
=
=
=
=
=
=
=
=
=
=
=
=
=
=
=
=
=
=
=
=
=
=
    65  2C        0C0C      
=
=
=
=
=
=
=
                  0B0B      
=
=
=
=
=
=
=
=
                  0A0A      
=
=
=
=
=
=
=
=
=
=
=
                  0909      
=
=
=
=
=
=
90  51  0A      1B0C0C32  0E
                1F          
                1C          
                16          
                14          
                12          
                10          
=
                  0B0B      
=
=
=
=
=
=
=
=
                  0A0A      
=
=
=
=
=
=
=
=
=
=
=
                  0909      
=
=
=
=
=
=
=
=
=
                  0808      
=
=
=
                  0707      
=
=
                  0606      
=
=
=
=
=
=
=
=
=
=
=
=
=
    90  51        0C0C      
=
=
=
=
=
=
=
                  0B0B      
=
=
=
=
=
=
=
=
                  0A0A      
=
=
=
=
=
=
=
=
=
=
=
                  0909      
=
=
=
=
=
=
C2  65  2C      1B0C0C38  0E
                1F          
                1C          
                16          
                14          
                12          
                10          
=
                  0B0B      
=
=
=
=
=
=
=
=
                  0A0A      
=
=
=
=
=
=
    90  51        0C0C      
=
=
=
=
=
=
=
                  0B0B      
=
=
=
    0A  C800      0C0C      
=
=
=
=
=
=
=
                  0B0B      
=
=
=
=
=
=
=
=
                  0A0A      
=
=
=
=
=
=
=
=
=
=
=
                  0909      
=
=
=
=
=
=
=
=
=
                  0808      
=
=
=
                  0707      
=
=
                  0606      
=
=
=
=
=
=
=
=
=
=
=
=
=
F8  51  FC      1B0C0C3F  0E
                1F          
                1C          
                16          
                14          
                12          
                10          
=
                  0B0B      
=
=
=
    FC00          0C        
=
=
=
=
                    0A      
    0A01                    
=
=
=
=
=
    FC00                    
=
=
=
=
                    09      
=
=
                  0B        
=
=
=
    0A01          0C        
=
=
                    08      
=
=
    2C                      
                    07      
=
=
                    06      
=
    0A                      
=
=
=
=
=
=
=
                  0B        
=
=
=
    2C            0C        
=
=
=
=
=
    51                      
=
=
=
=
=
    2C                      
=
=
=
=
=
=
=
                  0B        
=
=
=
    51            0C        
=
=
=
=
=
    65                      
=
=
=
=
=
160251  0A01    1B  0C43  0E
                1F          
                1C          
                16          
                14          
                12          
                10          
=
                  0B0B      
=
=
=
    65            0C        
=
=
=
=
                    0A      
    90                      
=
=
=
=
=
    65                      
=
=
=
=
                    09      
=
=
                  0B        
=
=
=
    90            0C        
=
=
                    08      
=
=
    C2                      
                    07      
=
=
                    06      
=
58  90          1B    71  0C
                1F          
                1C          
                16          
                14          
                12          
    C2  5C  031910  09      
        9C  05      08      
        DC  03              
        1C0202      07      
        5C          06      
        9C          05      
2C0112035C0103091B0F0A38  0C
    11049C  05191F  09      
      05DC  03  1C0D        
    91  1C0202  160A07      
    11065C      1408        
    91  9C      120506      
    11075C0103  10030B      
    91  9C  05    000A      
    1308DC  03              
    91  1C0202      08      
    11095C          07      
      009C    09            
580212035C0103  1B0F0C71  0C
    11049C  05191F  0B      
      05DC  03  1C0D0A      
    91  1C0202  160A09      
    11065C      140808      
    91  9C      120507      
    11075C0103  10030D      
    91  9C  05    000C      
    1308DC  03      0B      
    91  1C0202      0A      
    11095C          09      
      009C    09    08      
E10012035C0103  1B0F0E2A  0C
    11049C  05191F  0D      
      05DC  03  1C0D0C      
    91  1C0202  160A0A      
    11065C      140809      
    91  9C      120508      
    12035C010309100F0F      
    11049C  0519    0E      
      05DC  03    0D0D      
    91  1C0202    0A0B      
    11065C        080A      
    91  9C        0509      
1602850087031F  1B0E0F64  0C
    0A011104  391F          
        1505    1C  0E      
        0901    16  0A      
        52      14          
        8F      12          
    96000B      10          
    2C0150                  
        91                  
        09                  
        52                  
        8F                  
0A01850009  07191B    32  0C
    0A0152      1F          
        8F      1C          
        0B      16          
        50      14          
        91      12          
        09    3910          
        52                  
    0B  8F                  
        0B                  
        50                  
        91        0D        
160290  87031F191B0E0F64  0C
        1104  391F          
        1505    1C  0E      
        0901    16  0A      
        52      14          
        8F      12          
        0A      10          
        51                  
    91  90                  
        0A                  
        51                  
        90        0D        
0A0151  09  07191B0E  32  0C
        52      1F          
        8F      1C          
        0B      16          
        50      14          
        91      12          
        0A    3910          
        51                  
    52  90                  
        0A                  
        51                  
        90        0D        
1602850087031F191B0E0F64  0C
    0A011104  391F          
        1505    1C  0E      
        0901    16  0A      
        52      14          
        8F      12          
    96000B      10          
    2C0150                  
        91                  
        09                  
        52                  
        8F                  
0A01850009  07191B    32  0C
    0A0152      1F          
        8F      1C          
        0B      16          
        50      14          
        91      12          
        0A    3910          
        51                  
    0B  90                  
        0A                  
        51                  
        90        0D        
160251  87031F191B0E0F64  0C
        1104  391F          
        1505    1C  0E      
        0901    16  0A      
        52      14          
        8F      12          
        0A      10          
        51                  
    52  90                  
        0A                  
        51                  
        90        0D        
0A0190  09  07191B0E  32  0C
        52      1F          
        8F      1C          
        0B      16          
        50      14          
        91      12          
        09    3910          
        52                  
    91  8F                  
        0B                  
        50                  
        91        0D        
5802E100A9031F191B0E0F71  0C
    C2012504  391F          
        4705    1C  0E      
        2B01    16  0A      
        66      14          
        C1      12          
    C8002D      10          
    900164                  
        C3                  
        2B                  
        66                  
        C1                  
2C01B2002B  07191B    38  0C
    650166      1F          
        C1      1C          
        2D      16          
        64      14          
        C3      12          
        2B    3910          
        66                  
    66  C1                  
        2D                  
        64                  
        C3        0D        
5802C800A9031F191B0E0F71  0C
    90012504  391F          
        4705    1C  0E      
        2B01    16  0A      
        66      14          
        C1      12          
    B2002C      10          
    650165                  
        C2                  
        2C                  
        65                  
        C2                  
2C01A8002B  07191B    38  0C
    510166      1F          
        C1      1C          
        2D      16          
        64      14          
        C3      12          
        2C    3910          
        65                  
    52  C2                  
        2C                  
        65                  
        C2        0D        
5802B200A9031F191B0E0F71  0C
    65012504  391F          
        4705    1C  0E      
        2B01    16  0A      
        66      14          
        C1      12          
    A8002D      10          
    510164                  
        C3                  
        2B                  
        66                  
        C1                  
2C0196002B  07191B    38  0C
    2C0166      1F          
        C1      1C          
        2D      16          
        64      14          
        C3      12          
        2B    3910          
        66                  
    2D  C1                  
        2D                  
        64                  
        C3        0D        
58022B  A9031F191B  0F71  0C
        2504  391F          
        4705    1C  0E      
        2B01    16  0A      
    2F  66      14          
        C1      12          
        2C      10          
        65                  
    29  C2        0C        
        2C                  
        65                  
        C2                  
2C01    2B  07191B    38  0C
    2F  66      1F          
        C1      1C          
        2D      16          
        64      14          
        C3      12          
    29  2C    3910          
        65                  
        C2        0B        
        2C                  
        65                  
    2F  C2                  
A202A800CE031F191B0E0F7E  0C
    51015004  391F          
        7D05    1C  0E      
        5001    16  0A      
        91      14          
        F7      12          
    B20052      10          
    65018F                  
        F9                  
        50                  
        91                  
        F7                  
5101A80050  07191B    3F  0C
    510191      1F          
        F7      1C          
        52      16          
        8F      14          
        F9      12          
        50    3910          
        91                  
    52  F7                  
        52                  
        8F                  
        F9        0D        
A202C800CE031F191B0E0F7E  0C
        5004  391F          
        7D05    1C  0E      
        5001    16  0A      
        91      14          
        F7      12          
        51      10          
        90                  
    C9  F8                  
        51                  
        90                  
        F8        0D        
5101510150  07191B0E  3F  0C
        91      1F          
        F7      1C          
        52      16          
        8F      14          
        F9      12          
        51    3910          
        90                  
    52  F8                  
        51                  
        90                  
        F8        0D        
A202A800CE031F191B0E0F7E  0C
    51015004  391F          
        7D05    1C  0E      
        5001    16  0A      
        91      14          
        F7      12          
    B20051      10          
    650190                  
        F8                  
        51                  
        90                  
        F8                  
5101A80050  07191B    3F  0C
    510191      1F          
        F7      1C          
        52      16          
        8F      14          
        F9      12          
        51    3910          
        90                  
    52  F8                  
        51                  
        90                  
        F8        0D        
A202A800CE031F191B0E0F7E  0C
        5004  391F          
        7D05    1C  0E      
        5001    16  0A      
        91      14          
        F7      12          
        51      10          
        90                  
    A9  F8                  
        51                  
        90                  
        F8        0D        
5101510150  07191B0E  3F  0C
        91      1F          
        F7      1C          
        52      16          
        8F      14          
        F9      12          
        51    3910          
        90                  
    52  F8                  
        51                  
        90                  
        F8        0D        
CA02B200E2031F191B0E0F86  0C
    65016C04  391F          
        9B05    1C  0E      
        6401    16  0A      
        AD      14          
        1502    12          
    E1006601    10          
    C201AB                  
        1702                
        6401                
        AD                  
        1502                
6501C800640107191B    43  0C
    9001AD      1F          
        1502    1C          
        6601    16          
        AB      14          
        1702    12          
    B2006401  3910          
    6501AD                  
        1502                
        6601                
        AB                  
        1702                
CA02    E2031F191B  0F86  0C
        6C04  391F          
    66  9B05    1C  0E      
        6401    16  0A      
        AD      14          
        1502    120D        
    64  6501    10          
        AC                  
        1602                
        6501                
    68  AC                  
        1602                
6501A800640107191B0E  43  0C
    5101AD      1F          
        1502    1C          
        6601    16          
        AB      14          
        1702    12          
        6501  3910          
        AC                  
    52  1602                
        6501                
        AC                  
        1602      0D        
CA02B200E2031F191B0E0F86  0C
    65016C04  391F          
        9B05    1C  0E      
        6401    16  0A      
        AD      14          
        1502    12          
        6501    10          
        AC                  
    66  1602                
        6501                
        AC                  
        1602      0D        
650164  E203  191B  0F43  0C
        6C04  391F          
        9B05    1C  0E      
        6401    16  0A      
    68  AD      14          
        1502    12          
        6501    10          
        AC                  
    62  1602      0C        
        6501                
        AC                  
        1602                
CA02    E203  191B  0F86  0C
    68  6C04  391F          
        9B05    1C  0E      
        6401    16  0A      
        AD      14          
        1502    12          
    62  6501    10          
        AC                  
        1602      0B        
        6501                
        AC                  
    68  1602                
6501    A903  191B  0F43  0C
        2504  391F          
        4705    1C  0E      
    62  2B01    16  0A      
        66      14          
        C1      12          
    68  7903  1910  0F      
        EC    39            
        0005        0E      
        FB00        0A      
    62  2D01                
        7A                  
160285008703  191B0E0F64  0C
    0A011104  391F          
        1505    1C  0E      
        0901    16  0A      
        52      14          
        8F      12          
    96000B      10          
    2C0150                  
        91                  
        09                  
        52                  
        8F                  
0A01850009  07191B    32  0C
    0A0152      1F          
        8F      1C          
        0B      16          
        50      14          
        91      12          
        09    3910          
        52                  
    0B  8F                  
        0B                  
        50                  
        91        0D        
160290  87031F191B0E0F64  0C
        1104  391F          
        1505    1C  0E      
        0901    16  0A      
        52      14          
        8F      12          
        0A      10          
        51                  
    91  90                  
        0A                  
        51                  
        90        0D        
0A0151  09  07191B0E  32  0C
        52      1F          
        8F      1C          
        0B      16          
        50      14          
        91      12          
        0A    3910          
        51                  
    52  90                  
        0A                  
        51                  
        90        0D        
1602850087031F191B0E0F64  0C
    0A011104  391F          
        1505    1C  0E      
        0901    16  0A      
        52      14          
        8F      12          
    96000B      10          
    2C0150                  
        91                  
        09                  
        52                  
        8F                  
0A01850009  07191B    32  0C
    0A0152      1F          
        8F      1C          
        0B      16          
        50      14          
        91      12          
        0A    3910          
        51                  
    0B  90                  
        0A                  
        51                  
        90        0D        
160251  87031F191B0E0F64  0C
        1104  391F          
        1505    1C  0E      
        0901    16  0A      
        52      14          
        8F      12          
        0A      10          
        51                  
    52  90                  
        0A                  
        51                  
        90        0D        
0A0190  09  07191B0E  32  0C
        52      1F          
        8F      1C          
        0B      16          
        50      14          
        91      12          
        09    3910          
        52                  
    91  8F                  
        0B                  
        50                  
        91        0D        
5802E100A9031F191B0E0F71  0C
    C2012504  391F          
        4705    1C  0E      
        2B01    16  0A      
        66      14          
        C1      12          
    C8002D      10          
    900164                  
        C3                  
        2B                  
        66                  
        C1                  
2C01B2002B  07191B    38  0C
    650166      1F          
        C1      1C          
        2D      16          
        64      14          
        C3      12          
        2B    3910          
        66                  
    66  C1                  
        2D                  
        64                  
        C3        0D        
5802C800A9031F191B0E0F71  0C
    90012504  391F          
        4705    1C  0E      
        2B01    16  0A      
        66      14          
        C1      12          
    B2002C      10          
    650165                  
        C2                  
        2C                  
        65                  
        C2                  
2C01A8002B  07191B    38  0C
    510166      1F          
        C1      1C          
        2D      16          
        64      14          
        C3      12          
        2C    3910          
        65                  
    52  C2                  
        2C                  
        65                  
        C2        0D        
5802B200A9031F191B0E0F71  0C
    65012504  391F          
        4705    1C  0E      
        2B01    16  0A      
        66      14          
        C1      12          
    A8002D      10          
    510164                  
        C3                  
        2B                  
        66                  
        C1                  
2C0196002B  07191B    38  0C
    2C0166      1F          
        C1      1C          
        2D      16          
        64      14          
        C3      12          
        2B    3910          
        66                  
    2D  C1                  
        2D                  
        64                  
        C3        0D        
58022B  A9031F191B  0F71  0C
        2504  391F          
        4705    1C  0E      
        2B01    16  0A      
    2F  66      14          
        C1      12          
        2C      10          
        65                  
    29  C2        0C        
        2C                  
        65                  
        C2                  
2C01    2B  07191B    38  0C
    2F  66      1F          
        C1      1C          
        2D      16          
        64      14          
        C3      12          
    29  2C    3910          
        65                  
        C2        0B        
        2C                  
        65                  
    2F  C2                  
A202A800CE031F191B0E0F7E  0C
    51015004  391F          
        7D05    1C  0E      
        5001    16  0A      
        91      14          
        F7      12          
    B20052      10          
    65018F                  
        F9                  
        50                  
        91                  
        F7                  
5101A80050  07191B    3F  0C
    510191      1F          
        F7      1C          
        52      16          
        8F      14          
        F9      12          
        50    3910          
        91                  
    52  F7                  
        52                  
        8F                  
        F9        0D        
A202C800CE031F191B0E0F7E  0C
        5004  391F          
        7D05    1C  0E      
        5001    16  0A      
        91      14          
        F7      12          
        51      10          
        90                  
    C9  F8                  
        51                  
        90                  
        F8        0D        
5101510150  07191B0E  3F  0C
        91      1F          
        F7      1C          
        52      16          
        8F      14          
        F9      12          
        51    3910          
        90                  
    52  F8                  
        51                  
        90                  
        F8        0D        
A202A800CE031F191B0E0F7E  0C
    51015004  391F          
        7D05    1C  0E      
        5001    16  0A      
        91      14          
        F7      12          
    B20051      10          
    650190                  
        F8                  
        51                  
        90                  
        F8                  
5101A80050  07191B    3F  0C
    510191      1F          
        F7      1C          
        52      16          
        8F      14          
        F9      12          
        51    3910          
        90                  
    52  F8                  
        51                  
        90                  
        F8        0D        
A202A800CE031F191B0E0F7E  0C
        5004  391F          
        7D05    1C  0E      
        5001    16  0A      
        91      14          
        F7      12          
        51      10          
        90                  
    A9  F8                  
        51                  
        90                  
        F8        0D        
5101510150  07191B0E  3F  0C
        91      1F          
        F7      1C          
        52      16          
        8F      14          
        F9      12          
        51    3910          
        90                  
    52  F8                  
        51                  
        90                  
        F8        0D        
CA02B200E2031F191B0E0F86  0C
    65016C04  391F          
        9B05    1C  0E      
        6401    16  0A      
        AD      14          
        1502    12          
    E1006601    10          
    C201AB                  
        1702                
        6401                
        AD                  
        1502                
6501C800640107191B    43  0C
    9001AD      1F          
        1502    1C          
        6601    16          
        AB      14          
        1702    12          
    B2006401  3910          
    6501AD                  
        1502                
        6601                
        AB                  
        1702                
CA02    E2031F191B  0F86  0C
        6C04  391F          
    66  9B05    1C  0E      
        6401    16  0A      
        AD      14          
        1502    120D        
    64  6501    10          
        AC                  
        1602                
        6501                
    68  AC                  
        1602                
6501A800640107191B0E  43  0C
    5101AD      1F          
        1502    1C          
        6601    16          
        AB      14          
        1702    12          
        6501  3910          
        AC                  
    52  1602                
        6501                
        AC                  
        1602      0D        
CA02B200E2031F191B0E0F86  0C
    65016C04  391F          
        9B05    1C  0E      
        6401    16  0A      
        AD      14          
        1502    12          
        6501    10          
        AC                  
    66  1602                
        6501                
        AC                  
        1602      0D        
650164  E203  191B  0F43  0C
        6C04  391F          
        9B05    1C  0E      
        6401    16  0A      
    68  AD      14          
        1502    12          
        6501    10          
        AC                  
    62  1602      0C        
        6501                
        AC                  
        1602                
CA02    E203  191B  0F86  0C
    68  6C04  391F          
        9B05    1C  0E      
        6401    16  0A      
        AD      14          
        1502    12          
    62  6501    10          
        AC                  
        1602      0B        
        6501                
        AC                  
    68  1602                
6501    A903  191B  0F43  0C
        2504  391F          
        4705    1C  0E      
    62  2B01    16  0A      
        66      14          
        C1      12          
    68  7903  1910  0F      
        EC    39            
        0005        0E      
        FB00        0A      
    62  2D01                
        7A                  
16020A  8703  191B0E0F64  0C
        1104  391F          
        1505    1C  0E      
        0901    16  0A      
        52      14          
        8F      12          
        0B      10          
        50                  
    0B  91                  
        09                  
        52                  
        8F        0D        
0A0151  09  07191B    32  0C
        52      1F          
        8F      1C          
        0B      160B        
        50      140A        
        91      12          
        09    391009        
        52                  
        8F                  
        0B        08        
        50                  
        91                  
16022C  87031F191B0E0F64  0C
        1104  391F          
        1505    1C  0E      
        0901    16  0A      
        52      14          
        8F      12          
        0A      10          
        51                  
    2D  90                  
        0A                  
        51                  
        90        0D        
0A010A  09  07191B0E  32  0C
        52      1F          
        8F      1C          
        0B      16          
        50      14          
        91      12          
        0A    3910          
        51                  
    0B  90                  
        0A                  
        51                  
        90        0D        
16022C  87031F191B  0F64  0C
        1104  391F          
        1505    1C  0E      
        0901    160B0A      
        52      140A        
        8F      12          
        0B      1009        
        50                  
        91                  
        09        08        
        52                  
        8F                  
0A010A  09  07191B0D  32  0C
        52      1F          
        8F      1C          
        0B      160B        
        50      140A        
        91      12          
        0A    391009        
        51                  
        90                  
        0A        08        
        51                  
        90                  
1602    87031F191B0E0F64  0C
        1104  391F          
        1505    1C  0E      
        0901    16  0A      
        52      14          
        8F      12          
        0A      10          
        51                  
    0B  90                  
        0A                  
        51                  
        90        0D        
0A0151  09  07191B    32  0C
        52      1F          
        8F      1C          
        0B      160B        
        50      140A        
        91      12          
        09    391009        
        52                  
        8F                  
        0B        08        
        50                  
        91                  
58022C  A9031F191B0E0F71  0C
        2504  391F          
        4705    1C  0E      
        2B01    16  0A      
        66      14          
        C1      12          
        2D      10          
        64                  
    2D  C3                  
        2B                  
        66                  
        C1        0D        
2C01C2  2B  07191B    38  0C
        66      1F          
        C1      1C          
        2D      160B        
        64      140A        
        C3      12          
        2B    391009        
        66                  
        C1                  
        2D        08        
        64                  
        C3                  
580251  A9031F191B0E0F71  0C
        2504  391F          
        4705    1C  0E      
        2B01    16  0A      
        66      14          
        C1      12          
        2C      10          
        65                  
    52  C2                  
        2C                  
        65                  
        C2        0D        
2C012C  2B  07191B0E  38  0C
        66      1F          
        C1      1C          
        2D      16          
        64      14          
        C3      12          
        2C    3910          
        65                  
    2D  C2                  
        2C                  
        65                  
        C2        0D        
580251  A9031F191B  0F71  0C
        2504  391F          
        4705    1C  0E      
        2B01    160B0A      
        66      140A        
        C1      12          
        2D      1009        
        64                  
        C3                  
        2B        08        
        66                  
        C1                  
2C012C  2B  07191B0D  38  0C
        66      1F          
        C1      1C          
        2D      160B        
        64      140A        
        C3      12          
        2B    391009        
        66                  
        C1                  
        2D        08        
        64                  
        C3                  
580251  A9031F191B0D0F71  0C
        2504  391F          
        4705    1C  0E      
        2B01    160B0A      
        66      140A        
        C1      12          
        2C      1009        
        65                  
        C2                  
        2C        08        
        65                  
        C2                  
2C0165  2B  07191B0D  38  0C
        66      1F          
        C1      1C          
        2D      160B        
        64      140A        
        C3      12          
        2C    391009        
        65                  
        C2                  
        2C        08        
        65                  
        C2                  
A20251  CE031F191B0E0F7E  0C
        5004  391F          
        7D05    1C  0E      
        5001    16  0A      
        91      14          
        F7      12          
        52      10          
        8F                  
    52  F9                  
        50                  
        91                  
        F7        0D        
510190  50  07191B    3F  0C
        91      1F          
        F7      1C          
        52      160B        
        8F      140A        
        F9      12          
        50    391009        
        91                  
        F7                  
        52        08        
        8F                  
        F9                  
A20265  CE031F191B0E0F7E  0C
        5004  391F          
        7D05    1C  0E      
        5001    16  0A      
        91      14          
        F7      12          
        51      10          
        90                  
    66  F8                  
        51                  
        90                  
        F8        0D        
510151  50  07191B0E  3F  0C
        91      1F          
        F7      1C          
        52      16          
        8F      14          
        F9      12          
        51    3910          
        90                  
    52  F8                  
        51                  
        90                  
        F8        0D        
A20265  CE031F191B  0F7E  0C
        5004  391F          
        7D05    1C  0E      
        5001    160B0A      
        91      140A        
        F7      12          
        51      1009        
        90                  
        F8                  
        51        08        
        90                  
        F8                  
510151  50  07191B0D  3F  0C
        91      1F          
        F7      1C          
        52      160B        
        8F      140A        
        F9      12          
        51    391009        
        90                  
        F8                  
        51        08        
        90                  
        F8                  
A2020A  CE031F191B0E0F7E  0C
        5004  391F          
        7D05    1C  0E      
        5001    16  0A      
        91      14          
        F7      12          
        51      10          
        90                  
    0B  F8                  
        51                  
        90                  
        F8        0D        
510151  50  07191B    3F  0C
        91      1F          
        F7      1C          
        52      160B        
        8F      140A        
        F9      12          
        51    391009        
        90                  
        F8                  
        51        08        
        90                  
        F8                  
CA0265  E2031F191B0E0F86  0C
        6C04  391F          
        9B05    1C  0E      
        6401    16  0A      
        AD      14          
        1502    12          
        6601    10          
        AB                  
    66  1702                
        6401                
        AD                  
        1502      0D        
6501AC  640107191B    43  0C
        AD      1F          
        1502    1C          
        6601    160B        
        AB      140A        
        1702    12          
        6401  391009        
        AD                  
        1502                
        6601      08        
        AB                  
        1702                
CA0251  E2031F191B0E0F86  0C
        6C04  391F          
        9B05    1C  0E      
        6401    16  0A      
        AD      14          
        1502    12          
        6501    10          
        AC                  
    52  1602                
        6501                
        AC                  
        1602      0D        
650165  640107191B0E  43  0C
        AD      1F          
        1502    1C          
        6601    16          
        AB      14          
        1702    12          
        6501  3910          
        AC                  
    66  1602                
        6501                
        AC                  
        1602      0D        
CA0251  E2031F191B  0F86  0C
        6C04  391F          
        9B05    1C  0E      
        6401    160B0A      
        AD      140A        
        1502    12          
        6501    1009        
        AC                  
        1602                
        6501      08        
        AC                  
        1602                
650165  E203  191B0D0F43  0C
        6C04  391F          
        9B05    1C  0E      
        6401    160B0A      
        AD      140A        
        1502    12          
        6501    1009        
        AC                  
        1602                
        6501      08        
        AC                  
        1602                
CA020A  E203  191B0D0F86  0C
        6C04  391F          
        9B05    1C  0E      
        6401    160B0A      
        AD      140A        
        1502    12          
        6501    1009        
        AC                  
        1602                
        6501      08        
        AC                  
        1602                
650165  A903  191B0D0F43  0C
        2504  391F          
        4705    1C  0E      
        2B01    160B0A      
        66      140A        
        C1      12          
        7903  1910090F      
        EC    39            
        0005        0E      
        FB00      080A      
        2D01                
        7A                  
16020A  8703  191B0E0F64  0C
        1104  391F          
        1505    1C  0E      
        0901    16  0A      
        52      14          
        8F      12          
        0B      10          
        50                  
    0B  91                  
        09                  
        52                  
        8F        0D        
0A0151  09  07191B    32  0C
        52      1F          
        8F      1C          
        0B      160B        
        50      140A        
        91      12          
        09    391009        
        52                  
        8F                  
        0B        08        
        50                  
        91                  
16022C  87031F191B0E0F64  0C
        1104  391F          
        1505    1C  0E      
        0901    16  0A      
        52      14          
        8F      12          
        0A      10          
        51                  
    2D  90                  
        0A                  
        51                  
        90        0D        
0A010A  09  07191B0E  32  0C
        52      1F          
        8F      1C          
        0B      16          
        50      14          
        91      12          
        0A    3910          
        51                  
    0B  90                  
        0A                  
        51                  
        90        0D        
16022C  87031F191B  0F64  0C
        1104  391F          
        1505    1C  0E      
        0901    160B0A      
        52      140A        
        8F      12          
        0B      1009        
        50                  
        91                  
        09        08        
        52                  
        8F                  
0A010A  09  07191B0D  32  0C
        52      1F          
        8F      1C          
        0B      160B        
        50      140A        
        91      12          
        0A    391009        
        51                  
        90                  
        0A        08        
        51                  
        90                  
1602E10087031F191B0E0F64  0C
        1104  391F          
        1505    1C  0E      
        0901    16  0A      
        52      14          
        8F      12          
        0A      10          
        51                  
    E2  90                  
        0A                  
        51                  
        90        0D        
0A010A0109  07191B    32  0C
        52      1F          
        8F      1C          
        0B      160B        
        50      140A        
        91      12          
        09    391009        
        52                  
        8F                  
        0B        08        
        50                  
        91                  
5802B200A9031F191B0E0F71  0C
        2504  391F          
        4705    1C  0E      
        2B01    16  0A      
        66      14          
        C1      12          
        2D      10          
        64                  
    B3  C3                  
        2B                  
        66                  
        C1        0D        
2C01C8  2B  07191B0E  38  0C
        66      1F          
        C1      1C          
        2D      16          
        64      14          
        C3      12          
        2B    3910          
        66                  
    C9  C1                  
        2D                  
        64                  
        C3        0D        
5802E1  A9031F191B  0F71  0C
        2504  391F          
        4705    1C  0E      
        2B01    160B0A      
        66      140A        
        C1      12          
        2C      1009        
        65                  
        C2                  
        2C        08        
        65                  
        C2                  
2C01B2  2B  07191B0E  38  0C
        66      1F          
        C1      1C          
        2D      16          
        64      14          
        C3      12          
        2C    3910          
        65                  
    B3  C2                  
        2C                  
        65                  
        C2        0D        
5802B2  A9031F191B  0F71  0C
        2504  391F          
        4705    1C  0E      
        2B01    160B0A      
        66      140A        
        C1      12          
        2D      1009        
        64                  
        C3                  
        2B        08        
        66                  
        C1                  
2C01    2B  07191B0D  38  0C
        66      1F          
        C1      1C          
        2D      160B        
        64      140A        
        C3      12          
        2B    391009        
        66                  
        C1                  
        2D        08        
        64                  
        C3                  
5802    A9031F191B0D0F71  0C
        2504  391F          
        4705    1C  0E      
        2B01    160B0A      
        66      140A        
        C1      12          
        2C      1009        
        65                  
        C2                  
        2C        08        
        65                  
        C2                  
2C01    2B  07191B0D  38  0C
        66      1F          
        C1      1C          
        2D      160B        
        64      140A        
        C3      12          
        2C    391009        
        65                  
        C2                  
        2C        08        
        65                  
        C2                  
A20285  CE031F191B0E0F7E  0C
        5004  391F          
        7D05    1C  0E      
        5001    16  0A      
        91      14          
        F7      12          
        52      10          
        8F                  
    86  F9                  
        50                  
        91                  
        F7        0D        
5101C8  50  07191B    3F  0C
        91      1F          
        F7      1C          
        52      160B        
        8F      140A        
        F9      12          
        50    391009        
        91                  
        F7                  
        52        08        
        8F                  
        F9                  
A20296  CE031F191B0E0F7E  0C
        5004  391F          
        7D05    1C  0E      
        5001    16  0A      
        91      14          
        F7      12          
        51      10          
        90                  
    97  F8                  
        51                  
        90                  
        F8        0D        
5101A8  50  07191B0E  3F  0C
        91      1F          
        F7      1C          
        52      16          
        8F      14          
        F9      12          
        51    3910          
        90                  
    A9  F8                  
        51                  
        90                  
        F8        0D        
A20296  CE031F191B  0F7E  0C
        5004  391F          
        7D05    1C  0E      
        5001    160B0A      
        91      140A        
        F7      12          
        51      1009        
        90                  
        F8                  
        51        08        
        90                  
        F8                  
5101A8  50  07191B0D  3F  0C
        91      1F          
        F7      1C          
        52      160B        
        8F      140A        
        F9      12          
        51    391009        
        90                  
        F8                  
        51        08        
        90                  
        F8                  
A20285  CE031F191B0E0F7E  0C
        5004  391F          
        7D05    1C  0E      
        5001    16  0A      
        91      14          
        F7      12          
        51      10          
        90                  
    86  F8                  
        51                  
        90                  
        F8        0D        
5101C8  50  07191B    3F  0C
        91      1F          
        F7      1C          
        52      160B        
        8F      140A        
        F9      12          
        51    391009        
        90                  
        F8                  
        51        08        
        90                  
        F8                  
CA02B2  E2031F191B0E0F86  0C
        6C04  391F          
        9B05    1C  0E      
        6401    16  0A      
        AD      14          
        1502    12          
        6601    10          
        AB                  
    B3  1702                
        6401                
        AD                  
        1502      0D        
6501E1  640107191B    43  0C
        AD      1F          
        1502    1C          
        6601    160B        
        AB      140A        
        1702    12          
        6401  391009        
        AD                  
        1502                
        6601      08        
        AB                  
        1702                
CA02A8  E2031F191B0E0F86  0C
        6C04  391F          
        9B05    1C  0E      
        6401    16  0A      
        AD      14          
        1502    12          
        6501    10          
        AC                  
    A9  1602                
        6501                
        AC                  
        1602      0D        
6501B2  640107191B0E  43  0C
        AD      1F          
        1502    1C          
        6601    16          
        AB      14          
        1702    12          
        6501  3910          
        AC                  
    B3  1602                
        6501                
        AC                  
        1602      0D        
CA02A8  E2031F191B  0F86  0C
        6C04  391F          
        9B05    1C  0E      
        6401    160B0A      
        AD      140A        
        1502    12          
        6501    1009        
        AC                  
        1602                
        6501      08        
        AC                  
        1602                
6501B2  E203  191B0D0F43  0C
        6C04  391F          
        9B05    1C  0E      
        6401    160B0A      
        AD      140A        
        1502    12          
        6501    1009        
        AC                  
        1602                
        6501      08        
        AC                  
        1602                
CA02C8  E203  191B0D0F86  0C
        6C04  391F          
        9B05    1C  0E      
        6401    160B0A      
        AD      140A        
        1502    12          
        6501    1009        
        AC                  
        1602                
        6501      08        
        AC                  
        1602                
6501E1  A903  191B0D0F43  0C
        2504  391F          
        4705    1C  0E      
        2B01    160B0A      
        66      140A        
        C1      12          
        7903  1910090F      
        EC    39            
        0005        0E      
        FB00      080A      
        2D01                
        7A                  
160285  8703  191B0E0F64  0C
        1104  391F          
        1505    1C  0E      
        0901    16  0A      
        52      14          
        8F      12          
        0B      10          
        50                  
    86  91                  
        09                  
        52                  
        8F        0D        
0A01A8  09  07191B    32  0C
        52      1F          
        8F      1C          
        0B      160B        
        50      140A        
        91      12          
        09    391009        
        52                  
        8F                  
        0B        08        
        50                  
        91                  
160296  87031F191B0E0F64  0C
        1104  391F          
        1505    1C  0E      
        0901    16  0A      
        52      14          
        8F      12          
        0A      10          
        51                  
    97  90                  
        0A                  
        51                  
        90        0D        
0A0185  09  07191B0E  32  0C
        52      1F          
        8F      1C          
        0B      16          
        50      14          
        91      12          
        0A    3910          
        51                  
    86  90                  
        0A                  
        51                  
        90        0D        
160296  87031F191B  0F64  0C
        1104  391F          
        1505    1C  0E      
        0901    160B0A      
        52      140A        
        8F      12          
        0B      1009        
        50                  
        91                  
        09        08        
        52                  
        8F                  
0A0185  09  07191B0D  32  0C
        52      1F          
        8F      1C          
        0B      160B        
        50      140A        
        91      12          
        0A    391009        
        51                  
        90                  
        0A        08        
        51                  
        90                  
1602    87031F191B0E0F64  0C
        1104  391F          
        1505    1C  0E      
        0901    16  0A      
        52      14          
        8F      12          
        0A      10          
        51                  
    86  90                  
        0A                  
        51                  
        90        0D        
0A01A8  09  07191B    32  0C
        52      1F          
        8F      1C          
        0B      160B        
        50      140A        
        91      12          
        09    391009        
        52                  
        8F                  
        0B        08        
        50                  
        91                  
580296  A9031F191B0E0F71  0C
        2504  391F          
        4705    1C  0E      
        2B01    16  0A      
        66      14          
        C1      12          
        2D      10          
        64                  
    97  C3                  
        2B                  
        66                  
        C1        0D        
2C01B2  2B  07191B    38  0C
        66      1F          
        C1      1C          
        2D      160B        
        64      140A        
        C3      12          
        2B    391009        
        66                  
        C1                  
        2D        08        
        64                  
        C3                  
5802A8  A9031F191B0E0F71  0C
        2504  391F          
        4705    1C  0E      
        2B01    16  0A      
        66      14          
        C1      12          
        2C      10          
        65                  
    A9  C2                  
        2C                  
        65                  
        C2        0D        
2C01B2  2B  07191B0E  38  0C
        66      1F          
        C1      1C          
        2D      16          
        64      14          
        C3      12          
        2C    3910          
        65                  
    B3  C2                  
        2C                  
        65                  
        C2        0D        
5802A8  A9031F191B  0F71  0C
        2504  391F          
        4705    1C  0E      
        2B01    160B0A      
        66      140A        
        C1      12          
        2D      1009        
        64                  
        C3                  
        2B        08        
        66                  
        C1                  
2C01B2  2B  07191B0D  38  0C
        66      1F          
        C1      1C          
        2D      160B        
        64      140A        
        C3      12          
        2B    391009        
        66                  
        C1                  
        2D        08        
        64                  
        C3                  
5802C8  A9031F191B0D0F71  0C
        2504  391F          
        4705    1C  0E      
        2B01    160B0A      
        66      140A        
        C1      12          
        2C      1009        
        65                  
        C2                  
        2C        08        
        65                  
        C2                  
2C01E1  2B  07191B0D  38  0C
        66      1F          
        C1      1C          
        2D      160B        
        64      140A        
        C3      12          
        2C    391009        
        65                  
        C2                  
        2C        08        
        65                  
        C2                  
A202C8  CE031F191B0E0F7E  0C
        5004  391F          
        7D05    1C  0E      
        5001    16  0A      
        91      14          
        F7      12          
        52      10          
        8F                  
    C9  F9                  
        50                  
        91                  
        F7        0D        
5101FC  50  07191B    3F  0C
        91      1F          
        F7      1C          
        52      160B        
        8F      140A        
        F9      12          
        50    391009        
        91                  
        F7                  
        52        08        
        8F                  
        F9                  
A2025101CE031F191B0D0F7E  0C
        5004  391F          
        7D05    1C  0E      
        5001    160B0A      
        91      140A        
        F7      12          
        51      1009        
        90                  
        F8                  
        51        08        
        90                  
        F8                  
5101C80050  07191B0E  3F  0C
        91      1F          
        F7      1C          
        52      16          
        8F      14          
        F9      12          
        51    3910          
        90                  
    C9  F8                  
        51                  
        90                  
        F8        0D        
A2027E  CE031F191B0E0F7E  0C
        5004  391F          
        7D05    1C  0E      
        5001    16  0A      
        91      14          
        F7      12          
        51      10          
        90                  
    7F  F8                  
        51                  
        90                  
        F8        0D        
5101510150  07191B    3F  0C
        91      1F          
        F7      1C          
        52      160B        
        8F      140A        
        F9      12          
        51    391009        
        90                  
        F8                  
        51        08        
        90                  
        F8                  
A2028500CE031F191B0E0F7E  0C
        5004  391F          
        7D05    1C  0E      
        5001    16  0A      
        91      14          
        F7      12          
        51      10          
        90                  
    86  F8                  
        51                  
        90                  
        F8        0D        
5101900150  07191B    3F  0C
        91      1F          
        F7      1C          
        52      160B        
        8F      140A        
        F9      12          
        51    391009        
        90                  
        F8                  
        51        08        
        90                  
        F8                  
CA02B200E2031F191B0E0F86  0C
        6C04  391F          
        9B05    1C  0E      
        6401    16  0A      
        AD      14          
        1502    12          
        6601    10          
        AB                  
    B3  1702                
        6401                
        AD                  
        1502      0D        
6501C201640107191B    43  0C
        AD      1F          
        1502    1C          
        6601    160B        
        AB      140A        
        1702    12          
        6401  391009        
        AD                  
        1502                
        6601      08        
        AB                  
        1702                
CA02C800E2031F191B0E0F86  0C
        6C04  391F          
        9B05    1C  0E      
        6401    16  0A      
        AD      14          
        1502    12          
        6501    10          
        AC                  
    C9  1602                
        6501                
        AC                  
        1602      0D        
6501C8  640107191B0E  43  0C
    C4  AD      1F          
    C0  1502    1C          
    BC  6601    16          
    B8  AB      14          
    B4  1702    12          
    B2  6501  3910          
        AC                  
    B3  1602                
        6501                
        AC                  
        1602      0D        
CA02C8  E2031F191B  0F86  0C
        6C04  391F          
        9B05    1C  0E      
        6401    160B0A      
        AD      140A        
        1502    12          
        6501    1009        
        AC                  
        1602                
        6501      08        
        AC                  
        1602                
6501    E203  191B0D0F43  0C
    C4  6C04  391F          
    C0  9B05    1C  0E      
    BC  6401    160B0A      
    B8  AD      140A        
    B4  1502    12          
    B2  6501    1009        
        AC                  
        1602                
        6501      08        
        AC                  
        1602                
CA0285  E203  191B0D0F86  0C
        6C04  391F          
        9B05    1C  0E      
        6401    160B0A      
        AD      140A        
        1502    12          
        6501    1009        
        AC                  
        1602                
        6501      08        
        AC                  
        1602                
6501B2  A903  191B0D0F43  0C
        2504  391F          
        4705    1C  0E      
        2B01    160B0A      
        66      140A        
        C1      12          
        7903  1910090F      
        EC    39            
        0005        0E      
        FB00      080A      
        2D01                
        7A                  
1602A8  8703  191B0E0F64  0C
        1104  391F          
        1505    1C  0E      
        0901    16  0A      
        52      14          
        8F      12          
        0B      10          
        50                  
    A9  91                  
        09                  
        52                  
        8F        0D        
0A01C8  09  07191B    32  0C
        52      1F          
        8F      1C          
        0B      160B        
        50      140A        
        91      12          
    B2  09    39100D        
        52                  
        8F                  
        0B        0B        
        50        0A        
        91                  
1602A8  87031F191B0D0F64  0C
        1104  391F          
        1505    1C  0E      
        0901    160B0A      
        52      140A        
        8F      12          
        0A      1009        
        51                  
        90                  
        0A        08        
        51                  
        90                  
0A01    09  07191B0D  32  0C
        52      1F          
        8F      1C          
        0B      160B        
        50      140A        
        91      12          
        0A    391009        
        51                  
        90                  
        0A        08        
        51                  
        90                  
1602    87031F191B0D0F64  0C
        1104  391F          
        1505    1C  0E      
        0901    160B0A      
        52      140A        
        8F      12          
        0B      1009        
        50                  
        91                  
        09        08        
        52                  
        8F                  
0A01    09  07191B    32  0C
        52      1F          
        8F      1C          
        0B      16          
        50      14          
    A6  91      12          
    C8  0A    39100D        
        51                  
        90                  
        0A        0B        
        51        0A        
        90                  
1602    87031F191B090F64  0C
        1104  391F          
        1505    1C  0E      
        0901    16080A      
        52      14          
        8F      12          
        0A      10          
        51                  
        90                  
        0A                  
        51                  
    C6  90                  
0A0196  09  07191B0E  32  0C
        52      1F          
        8F      1C          
        0B      16          
        50      14          
        91      12          
        09    3910          
        52                  
    97  8F                  
        0B                  
        50                  
        91        0D        
5802A8  A9031F191B0E0F71  0C
        2504  391F          
        4705    1C  0E      
        2B01    16  0A      
        66      14          
        C1      12          
        2D      10          
        64                  
    A9  C3                  
        2B                  
        66                  
        C1        0D        
2C01B2  2B  07191B0E  38  0C
        66      1F          
        C1      1C          
        2D      16          
        64      14          
        C3      12          
        2B    3910          
        66                  
    B3  C1                  
        2D                  
        64                  
        C3        0D        
5802C8  A9031F191B0E0F71  0C
        2504  391F          
        4705    1C  0E      
        2B01    16  0A      
        66      14          
        C1      12          
        2C      10          
        65                  
    C9  C2                  
        2C                  
        65                  
        C2        0D        
2C01C8  2B  07191B0E  38  0C
    D2  66      1F          
    DC  C1      1C          
    E1  2D      16          
        64      14          
        C3      12          
        2C    3910          
        65                  
    E2  C2                  
        2C                  
        65                  
        C2        0D        
5802E0  A9031F191B  0F71  0C
        2504  391F          
        4705    1C  0E      
        2B01    16  0A      
    E4  66      14          
        C1      12          
    0A012D      1001        
        64                  
        C3                  
        2B                  
        66                  
        C1                  
2C01E1002B  07191B0D  38  0C
        66      1F          
        C1      1C          
        2D      160B        
        64      140A        
        C3      12          
        2B    391009        
        66                  
        C1                  
        2D        08        
        64                  
        C3                  
580296  A9031F191B0D0F71  0C
        2504  391F          
        4705    1C  0E      
        2B01    160B0A      
        66      140A        
        C1      12          
        2C      1009        
        65                  
        C2                  
        2C        08        
        65                  
        C2                  
2C01    2B  07191B0D  38  0C
        66      1F          
        C1      1C          
        2D      160B        
        64      140A        
        C3      12          
        2C    391009        
        65                  
        C2                  
        2C        08        
        65                  
        C2                  
A202C8  CE031F191B0E0F7E  0C
        5004  391F          
        7D05    1C  0E      
        5001    16  0A      
        91      14          
        F7      12          
        52      10          
        8F                  
    C9  F9                  
        50                  
        91                  
        F7        0D        
5101E1  50  07191B    3F  0C
        91      1F          
        F7      1C          
        52      160B        
        8F      140A        
        F9      12          
        50    391009        
        91                  
        F7                  
        52        08        
        8F                  
        F9                  
A202C8  CE031F191B0D0F7E  0C
        5004  391F          
        7D05    1C  0E      
        5001    160B0A      
        91      140A        
        F7      12          
        51      1009        
        90                  
        F8                  
        51        08        
        90                  
        F8                  
5101    50  07191B0E  3F  0C
        91      1F          
        F7      1C          
        52      16          
        8F      14          
        F9      12          
    A8  51    3910          
        90                  
        F8                  
        51                  
        90                  
        F8                  
A2027E  CE031F191B  0F7E  0C
        5004  391F          
        7D05    1C  0E      
        5001    16  0A      
        91      14          
        F7      12          
        51      10          
        90                  
    7F  F8                  
        51                  
        90                  
        F8        0D        
5101A8  50  07191B    3F  0C
        91      1F          
        F7      1C          
        52      160B        
        8F      140A        
        F9      12          
    85  51    39100E        
        90                  
        F8                  
        51                  
        90                  
        F8                  
A202    CE031F191B  0F7E  0C
        5004  391F          
    86  7D05    1C  0E      
        5001    16  0A      
        91      14          
        F7      120D        
    C8  51      10          
        90                  
        F8                  
        51        0B        
        90        0A        
        F8                  
5101    50  07191B0E  3F  0C
        91      1F          
        F7      1C          
        52      16          
        8F      14          
        F9      12          
        51    3910          
        90                  
    C9  F8                  
        51                  
        90                  
        F8        0D        
CA02B2  E2031F191B0E0F86  0C
        6C04  391F          
        9B05    1C  0E      
        6401    16  0A      
        AD      14          
        1502    12          
        6601    10          
        AB                  
    B3  1702                
        6401                
        AD                  
        1502      0D        
6501C8  640107191B    43  0C
        AD      1F          
        1502    1C          
        6601    160B        
        AB      140A        
        1702    12          
        6401  391009        
        AD                  
        1502                
        6601      08        
        AB                  
        1702                
CA02B2  E2031F191B0D0F86  0C
        6C04  391F          
        9B05    1C  0E      
        6401    160B0A      
        AD      140A        
        1502    12          
        6501    1009        
        AC                  
        1602                
        6501      08        
        AC                  
        1602                
6501C8  640107191B0D  43  0C
        AD      1F          
        1502    1C          
        6601    160B        
        AB      140A        
        1702    12          
        6501  391009        
        AC                  
        1602                
        6501      08        
        AC                  
        1602                
CA0285  E2031F191B0F0F86  0C
        6C04  391F          
        9B05    1C  0E      
        6401    160E0A      
        AD      140D        
        1502    12          
    96  6501    100F        
        AC                  
        1602                
        6501      0E        
        AC        0D        
        1602                
6501A8  E203  191B0F0F43  0C
        6C04  391F          
        9B05    1C  0E      
        6401    160E0A      
        AD      140D        
        1502    12          
    B2  6501    100F        
        AC                  
        1602                
        6501      0E        
        AC        0D        
        1602                
CA02A8  E203  191B0F0F86  0C
        6C04  391F          
        9B05    1C  0E      
        6401    160E0A      
        AD      140D        
        1502    12          
    B2  6501    100F        
        AC                  
        1602                
        6501      0E        
        AC        0D        
        1602                
6501C8  A903  191B0F0F43  0C
        2504  391F          
        4705    1C  0E      
        2B01    160E0A      
        66      140D        
        C1      12          
    E1  7903  19100F0F      
        EC    39            
        0005        0E      
        FB00      0E0A      
        2D01      0D        
        7A                  
A202C8  CE03  191B0E0F7E  0C
        5004  391F          
        7D05    1C  0E      
        5001    16  0A      
        91      14          
        F7      12          
        52      10          
        8F                  
    C9  F9                  
        50                  
        91                  
        F7        0D        
5101C7  50  07191B    3F  0C
        91      1F          
        F7      1C          
        52      16          
    CB  8F      14          
        F9      12          
        50    3910          
        91                  
    C5  F7        0C        
        52                  
        8F                  
        F9                  
A202A8  CE031F191B0E0F7E  0C
        5004  391F          
        7D05    1C  0E      
        5001    16  0A      
        91      14          
        F7      12          
        51      10          
        90                  
    A9  F8                  
        51                  
        90                  
        F8        0D        
5101C8  50  07191B0E  3F  0C
        91      1F          
        F7      1C          
        52      16          
        8F      14          
        F9      12          
        51    3910          
        90                  
    C9  F8                  
        51                  
        90                  
        F8        0D        
A202C7  CE031F191B  0F7E  0C
        5004  391F          
        7D05    1C  0E      
        5001    16  0A      
    CB  91      14          
        F7      12          
        52      10          
        8F                  
    C5  F9        0C        
        50                  
        91                  
        F7                  
5101    50  07191B    3F  0C
    CB  91      1F          
        F7      1C          
        52      16          
        8F      14          
        F9      12          
    C5  51    3910          
        90                  
        F8        0B        
        51                  
        90                  
    CB  F8                  
A202A8  CE031F191B0D0F7E  0C
    51015004  391F          
        7D05    1C  0E      
        5001    160B0A      
        91      140A        
        F7      12          
    B20051      100D        
    650190                  
        F8                  
        51        0B        
[...]
        51                  
    86  90                  
        0A                  
        51                  
        90        0D        
0A01A8  09  07191B    32  0C
        52      1F          
        8F      1C          
        0B      160B        
        50      140A        
        91      12          
        09    391009        
        52                  
        8F                  
        0B        08        
        50                  
        91                  
580296  A9031F191B0E0F71  0C
        2504  391F          
        4705    1C  0E      
        2B01    16  0A      
        66      14          
        C1      12          
        2D      10          
        64                  
    97  C3                  
        2B                  
        66                  
        C1        0D        
2C01B2  2B  07191B    38  0C
        66      1F          
        C1      1C          
        2D      160B        
        64      140A        
        C3      12          
        2B    391009        
        66                  
        C1                  
        2D        08        
        64                  
        C3                  
5802A8  A9031F191B0E0F71  0C
        2504  391F          
        4705    1C  0E      
        2B01    16  0A      
        66      14          
        C1      12          
        2C      10          
        65                  
    A9  C2                  
        2C                  
        65                  
        C2        0D        
2C01B2  2B  07191B0E  38  0C
        66      1F          
        C1      1C          
        2D      16          
        64      14          
        C3      12          
        2C    3910          
        65                  
    B3  C2                  
        2C                  
        65                  
        C2        0D        
5802A8  A9031F191B  0F71  0C
        2504  391F          
        4705    1C  0E      
        2B01    160B0A      
        66      140A        
        C1      12          
        2D      1009        
        64                  
        C3                  
        2B        08        
        66                  
        C1                  
2C01B2  2B  07191B0D  38  0C
        66      1F          
        C1      1C          
        2D      160B        
        64      140A        
        C3      12          
        2B    391009        
        66                  
        C1                  
        2D        08        
        64                  
        C3                  
5802C8  A9031F191B0D0F71  0C
        2504  391F          
        4705    1C  0E      
        2B01    160B0A      
        66      140A        
        C1      12          
        2C      1009        
        65                  
        C2                  
        2C        08        
        65                  
        C2                  
2C01E1  2B  07191B0D  38  0C
        66      1F          
        C1      1C          
        2D      160B        
        64      140A        
        C3      12          
        2C    391009        
        65                  
        C2                  
        2C        08        
        65                  
        C2                  
A202C8  CE031F191B0E0F7E  0C
        5004  391F          
        7D05    1C  0E      
        5001    16  0A      
        91      14          
        F7      12          
        52      10          
        8F                  
    C9  F9                  
        50                  
        91                  
        F7        0D        
5101FC  50  07191B    3F  0C
        91      1F          
        F7      1C          
        52      160B        
        8F      140A        
        F9      12          
        50    391009        
        91                  
        F7                  
        52        08        
        8F                  
        F9                  
A2025101CE031F191B0D0F7E  0C
        5004  391F          
        7D05    1C  0E      
        5001    160B0A      
        91      140A        
        F7      12          
        51      1009        
        90                  
        F8                  
        51        08        
        90                  
        F8                  
5101C80050  07191B0E  3F  0C
        91      1F          
        F7      1C          
        52      16          
        8F      14          
        F9      12          
        51    3910          
        90                  
    C9  F8                  
        51                  
        90                  
        F8        0D        
A2027E  CE031F191B0E0F7E  0C
        5004  391F          
        7D05    1C  0E      
        5001    16  0A      
        91      14          
        F7      12          
        51      10          
        90                  
    7F  F8                  
        51                  
        90                  
        F8        0D        
5101510150  07191B    3F  0C
        91      1F          
        F7      1C          
        52      160B        
        8F      140A        
        F9      12          
        51    391009        
        90                  
        F8                  
        51        08        
        90                  
        F8                  
A2028500CE031F191B0E0F7E  0C
        5004  391F          
        7D05    1C  0E      
        5001    16  0A      
        91      14          
        F7      12          
        51      10          
        90                  
    86  F8                  
        51                  
        90                  
        F8        0D        
5101900150  07191B    3F  0C
        91      1F          
        F7      1C          
        52      160B        
        8F      140A        
        F9      12          
        51    391009        
        90                  
        F8                  
        51        08        
        90                  
        F8                  
CA02B200E2031F191B0E0F86  0C
        6C04  391F          
        9B05    1C  0E      
        6401    16  0A      
        AD      14          
        1502    12          
        6601    10          
        AB                  
    B3  1702                
        6401                
        AD                  
        1502      0D        
6501C201640107191B    43  0C
        AD      1F          
        1502    1C          
        6601    160B        
        AB      140A        
        1702    12          
        6401  391009        
        AD                  
        1502                
        6601      08        
        AB                  
        1702                
CA02C800E2031F191B0E0F86  0C
        6C04  391F          
        9B05    1C  0E      
        6401    16  0A      
        AD      14          
        1502    12          
        6501    10          
        AC                  
    C9  1602                
        6501                
        AC                  
        1602      0D        
6501C8  640107191B0E  43  0C
    C4  AD      1F          
    C0  1502    1C          
    BC  6601    16          
    B8  AB      14          
    B4  1702    12          
    B2  6501  3910          
        AC                  
    B3  1602                
        6501                
        AC                  
        1602      0D        
CA02C8  E2031F191B  0F86  0C
        6C04  391F          
        9B05    1C  0E      
        6401    160B0A      
        AD      140A        
        1502    12          
        6501    1009        
        AC                  
        1602                
        6501      08        
        AC                  
        1602                
6501    E203  191B0D0F43  0C
    C4  6C04  391F          
    C0  9B05    1C  0E      
    BC  6401    160B0A      
    B8  AD      140A        
    B4  1502    12          
    B2  6501    1009        
        AC                  
        1602                
        6501      08        
        AC                  
        1602                
CA0285  E203  191B0D0F86  0C
        6C04  391F          
        9B05    1C  0E      
        6401    160B0A      
        AD      140A        
        1502    12          
        6501    1009        
        AC                  
        1602                
        6501      08        
        AC                  
        1602                
6501B2  A903  191B0D0F43  0C
        2504  391F          
        4705    1C  0E      
        2B01    160B0A      
        66      140A        
        C1      12          
        7903  1910090F      
        EC    39            
        0005        0E      
        FB00      080A      
        2D01                
        7A                  
1602A8  8703  191B0E0F64  0C
        1104  391F          
        1505    1C  0E      
        0901    16  0A      
        52      14          
        8F      12          
        0B      10          
        50                  
    A9  91                  
        09                  
        52                  
        8F        0D        
0A01C8  09  07191B    32  0C
        52      1F          
        8F      1C          
        0B      160B        
        50      140A        
        91      12          
    B2  09    39100D        
        52                  
        8F                  
        0B        0B        
        50        0A        
        91                  
1602A8  87031F191B0D0F64  0C
        1104  391F          
        1505    1C  0E      
        0901    160B0A      
        52      140A        
        8F      12          
        0A      1009        
        51                  
        90                  
        0A        08        
        51                  
        90                  
0A01    09  07191B0D  32  0C
        52      1F          
        8F      1C          
        0B      160B        
        50      140A        
        91      12          
        0A    391009        
        51                  
        90                  
        0A        08        
        51                  
        90                  
1602    87031F191B0D0F64  0C
        1104  391F          
        1505    1C  0E      
        0901    160B0A      
        52      140A        
        8F      12          
        0B      1009        
        50                  
        91                  
        09        08        
        52                  
        8F                  
0A01    09  07191B    32  0C
        52      1F          
        8F      1C          
        0B      16          
        50      14          
    A6  91      12          
    C8  0A    39100D        
        51                  
        90                  
        0A        0B        
        51        0A        
        90                  
1602    87031F191B090F64  0C
        1104  391F          
        1505    1C  0E      
        0901    16080A      
        52      14          
        8F      12          
        0A      10          
        51                  
        90                  
        0A                  
        51                  
    C6  90                  
0A0196  09  07191B0E  32  0C
        52      1F          
        8F      1C          
        0B      16          
        50      14          
        91      12          
        09    3910          
        52                  
    97  8F                  
        0B                  
        50                  
        91        0D        
5802A8  A9031F191B0E0F71  0C
        2504  391F          
        4705    1C  0E      
        2B01    16  0A      
        66      14          
        C1      12          
        2D      10          
        64                  
    A9  C3                  
        2B                  
        66                  
        C1        0D        
2C01B2  2B  07191B0E  38  0C
        66      1F          
        C1      1C          
        2D      16          
        64      14          
        C3      12          
        2B    3910          
        66                  
    B3  C1                  
        2D                  
        64                  
        C3        0D        
5802C8  A9031F191B0E0F71  0C
        2504  391F          
        4705    1C  0E      
        2B01    16  0A      
        66      14          
        C1      12          
        2C      10          
        65                  
    C9  C2                  
        2C                  
        65                  
        C2        0D        
2C01C8  2B  07191B0E  38  0C
    D2  66      1F          
    DC  C1      1C          
    E1  2D      16          
        64      14          
        C3      12          
        2C    3910          
        65                  
    E2  C2                  
        2C                  
        65                  
        C2        0D        
5802E0  A9031F191B  0F71  0C
        2504  391F          
        4705    1C  0E      
        2B01    16  0A      
    E4  66      14          
        C1      12          
    0A012D      1001        
        64                  
        C3                  
        2B                  
        66                  
        C1                  
2C01E1002B  07191B0D  38  0C
        66      1F          
        C1      1C          
        2D      160B        
        64      140A        
        C3      12          
        2B    391009        
        66                  
        C1                  
        2D        08        
        64                  
        C3                  
580296  A9031F191B0D0F71  0C
        2504  391F          
        4705    1C  0E      
        2B01    160B0A      
        66      140A        
        C1      12          
        2C      1009        
        65                  
        C2                  
        2C        08        
        65                  
        C2                  
2C01    2B  07191B0D  38  0C
        66      1F          
        C1      1C          
        2D      160B        
        64      140A        
        C3      12          
        2C    391009        
        65                  
        C2                  
        2C        08        
        65                  
        C2                  
A202C8  CE031F191B0E0F7E  0C
        5004  391F          
        7D05    1C  0E      
        5001    16  0A      
        91      14          
        F7      12          
        52      10          
        8F                  
    C9  F9                  
        50                  
        91                  
        F7        0D        
5101E1  50  07191B    3F  0C
        91      1F          
        F7      1C          
        52      160B        
        8F      140A        
        F9      12          
        50    391009        
        91                  
        F7                  
        52        08        
        8F                  
        F9                  
A202C8  CE031F191B0D0F7E  0C
        5004  391F          
        7D05    1C  0E      
        5001    160B0A      
        91      140A        
        F7      12          
        51      1009        
        90                  
        F8                  
        51        08        
        90                  
        F8                  
5101    50  07191B0E  3F  0C
        91      1F          
        F7      1C          
        52      16          
        8F      14          
        F9      12          
    A8  51    3910          
        90                  
        F8                  
        51                  
        90                  
        F8                  
A2027E  CE031F191B  0F7E  0C
        5004  391F          
        7D05    1C  0E      
        5001    16  0A      
        91      14          
        F7      12          
        51      10          
        90                  
    7F  F8                  
        51                  
        90                  
        F8        0D        
5101A8  50  07191B    3F  0C
        91      1F          
        F7      1C          
        52      160B        
        8F      140A        
        F9      12          
    85  51    39100E        
        90                  
        F8                  
        51                  
        90                  
        F8                  
A202    CE031F191B  0F7E  0C
        5004  391F          
    86  7D05    1C  0E      
        5001    16  0A      
        91      14          
        F7      120D        
    C8  51      10          
        90                  
        F8                  
        51        0B        
        90        0A        
        F8                  
5101    50  07191B0E  3F  0C
        91      1F          
        F7      1C          
        52      16          
        8F      14          
        F9      12          
        51    3910          
        90                  
    C9  F8                  
        51                  
        90                  
        F8        0D        
CA02B2  E2031F191B0E0F86  0C
        6C04  391F          
        9B05    1C  0E      
        6401    16  0A      
        AD      14          
        1502    12          
        6601    10          
        AB                  
    B3  1702                
        6401                
        AD                  
        1502      0D        
6501C8  640107191B    43  0C
        AD      1F          
        1502    1C          
        6601    160B        
        AB      140A        
        1702    12          
        6401  391009        
        AD                  
        1502                
        6601      08        
        AB                  
        1702                
CA02B2  E2031F191B0D0F86  0C
        6C04  391F          
        9B05    1C  0E      
        6401    160B0A      
        AD      140A        
        1502    12          
        6501    1009        
        AC                  
        1602                
        6501      08        
        AC                  
        1602                
6501C8  640107191B0D  43  0C
        AD      1F          
        1502    1C          
        6601    160B        
        AB      140A        
        1702    12          
        6501  391009        
        AC                  
        1602                
        6501      08        
        AC                  
        1602                
CA0285  E2031F191B0F0F86  0C
        6C04  391F          
        9B05    1C  0E      
        6401    160E0A      
        AD      140D        
        1502    12          
    96  6501    100F        
        AC                  
        1602                
        6501      0E        
        AC        0D        
        1602                
6501A8  E203  191B0F0F43  0C
        6C04  391F          
        9B05    1C  0E      
        6401    160E0A      
        AD      140D        
        1502    12          
    B2  6501    100F        
        AC                  
        1602                
        6501      0E        
        AC        0D        
        1602                
CA02A8  E203  191B0F0F86  0C
        6C04  391F          
        9B05    1C  0E      
        6401    160E0A      
        AD      140D        
        1502    12          
    B2  6501    100F        
        AC                  
        1602                
        6501      0E        
        AC        0D        
        1602                
6501C8  A903  191B0F0F43  0C
        2504  391F          
        4705    1C  0E      
        2B01    160E0A      
        66      140D        
        C1      12          
    E1  7903  19100F0F      
        EC    39            
        0005        0E      
        FB00      0E0A      
        2D01      0D        
        7A                  
