000102030405060708090a0b0c0d
ED056F01000006281E0E00300008
    EF        38            
    6F02        1D0D        
    EF          1C          
    6F03        1B0C        
EF  EF          1A0B        
      04          00        
ED    00                    
7B01            1E          
=
                1D          
                1C          
                1B          
7D              1A          
=
7B                          
ED056F01      281E0E        
    EF        38            
    6F02        1D0D        
    EF          1C          
    6F03        1B0C        
EF  EF          1A0B        
      04          00        
ED    00                    
7B01            1E          
=
                1D          
                1C          
                1B          
7D              1A          
=
7B                          
ED056F01      281E0E        
    EF        38            
    6F02        1D0D        
    EF          1C          
    6F03        1B0C        
EF  EF          1A0B        
      04          00        
ED    00                    
7B01            1E          
=
                1D          
                1C          
                1B          
7D              1A          
=
7B                          
ED056F01      281E0E        
    EF        38            
    6F02        1D0D        
    EF          1C          
    6F03        1B0C        
EF  EF          1A0B        
      04          00        
ED    00                    
7B01            1E          
=
                1D          
                1C          
                1B          
7D              1A          
=
7B                          
ED056F01      281E0E        
    EF        38            
    6F02        1D0D        
    EF          1C          
    6F03        1B0C        
EF  EF          1A0B        
      04          00        
ED    00                    
7B01            1E          
=
                1D          
                1C          
                1B          
7D              1A          
=
7B                          
ED056F01      281E0E        
    EF        38            
    6F02        1D0D        
    EF          1C          
    6F03        1B0C        
EF  EF          1A0B        
      04          00        
ED    00                    
7B01            1E          
=
                1D          
                1C          
                1B          
7D              1A          
=
7B                          
ED056F01      281E0E        
    EF        38            
    6F02        1D0D        
    EF          1C          
    6F03        1B0C        
EF  EF          1A0B        
      04          00        
ED    00                    
7B01            1E          
=
                1D          
                1C          
                1B          
7D              1A          
=
7B                          
ED056F01      281E0E        
    EF        38            
    6F02        1D0D        
    EF          1C          
    6F03        1B0C        
EF  EF          1A0B        
      04          00        
ED    00                    
7B01            1E          
=
                1D          
                1C          
                1B          
7D              1A          
=
7B                          
ED056F01      281E0E        
    EF        38            
    6F02        1D0D        
    EF          1C          
    6F03        1B0C        
EF  EF          1A0B        
      04          00        
ED    00                    
7B01            1E          
=
                1D          
                1C          
                1B          
7D              1A          
=
7B                          
ED056F01      281E0E        
    EF        38            
    6F02        1D0D        
    EF          1C          
    6F03        1B0C        
EF  EF          1A0B        
      04          00        
ED    00                    
7B01            1E          
=
                1D          
                1C          
                1B          
7D              1A          
=
7B                          
ED056F01      281E0E        
    EF        38            
    6F02        1D0D        
    EF          1C          
    6F03        1B0C        
EF  EF          1A0B        
      04          00        
ED    00                    
7B01            1E          
=
                1D          
                1C          
                1B          
7D              1A          
=
7B                          
ED056F01      281E0E        
    EF        38            
    6F02        1D0D        
    EF          1C          
    6F03        1B0C        
EF  EF          1A0B        
      04          00        
ED    00                    
7B01            1E          
=
                1D          
                1C          
                1B          
7D              1A          
=
7B                          
ED056F01      281E0E        
    EF        38            
    6F02        1D0D        
    EF          1C          
    6F03        1B0C        
EF  EF          1A0B        
      04          00        
ED    00                    
7B01            1E          
=
                1D          
                1C          
                1B          
7D              1A          
=
7B                          
ED056F01      281E0E        
    EF        38            
    6F02        1D0D        
    EF          1C          
    6F03        1B0C        
EF  EF          1A0B        
      04          00        
ED    00                    
7B01            1E          
=
                1D          
                1C          
                1B          
7D              1A          
=
7B                          
ED056F01      281E0E        
    EF        38            
    6F02        1D0D        
    EF          1C          
    6F03        1B0C        
EF  EF          1A0B        
      04          00        
ED    00                    
7B01            1E          
=
                1D          
                1C          
                1B          
7D              1A          
=
7B                          
ED056F01      281E0E        
    EF        38            
    6F02        1D0D        
    EF          1C          
    6F03        1B0C        
EF  EF          1A0B        
      04          00        
ED    00                    
7B01            1E          
=
                1D          
                1C          
                1B          
7D              1A          
=
7B                          
ED056F01BE    281E0E0E      
    EF        38    0D      
    6F02        1D0D0C      
    EF          1C  0B      
    6F03        1B0C0A      
EF  EF          1A0B09      
      04          0008      
ED    00            07      
7B0100      01281E0C0E      
                  0B0D      
                1D  0C      
                1C0A0B      
                1B  0A      
7D              1A0909      
                    08      
7B                0007      
ED05EF  5F  05  1E0E0E      
    1F01            0D      
    4F          1D0D0C      
    7F          1C0C0B      
    AF          1B0B0A      
EF  DF          1A0A09      
    0F02          0808      
ED  3F            0607      
7B010000BE  01  1E0C0E      
                  0B0D      
                1D  0C      
                1C0A0B      
                1B  0A      
7D              1A0909      
                    08      
7B                0007      
ED056F01    06  1E0E0E      
    EF        38    0D      
    6F02        1D0D0C      
    EF          1C  0B      
    6F03        1B0C0A      
EF  EF          1A0B09      
      04          0008      
ED    00            07      
7B0100  5F  01281E0C0E      
                  0B0D      
                1D  0C      
                1C0A0B      
                1B  0A      
7D              1A0909      
                    08      
7B                0007      
ED05EF  BE  05  1E0E0E      
    1F01            0D      
    4F          1D0D0C      
    7F          1C0C0B      
    AF          1B0B0A      
EF  DF          1A0A09      
    0F02          0808      
ED  3F            0607      
7B0100005F  01  1E0C0E      
                  0B0D      
                1D  0C      
                1C0A0B      
                1B  0A      
7D              1A0909      
                    08      
7B                0007      
ED056F01BE  06  1E0E0E      
    EF        38    0D      
    6F02        1D0D0C      
    EF          1C  0B      
    6F03        1B0C0A      
EF  EF          1A0B09      
      04          0008      
ED    00            07      
7B0100      01281E0C0E      
                  0B0D      
                1D  0C      
                1C0A0B      
                1B  0A      
7D              1A0909      
                    08      
7B                0007      
ED05EF  5F  05  1E0E0E      
    1F01            0D      
    4F          1D0D0C      
    7F          1C0C0B      
    AF          1B0B0A      
EF  DF          1A0A09      
    0F02          0808      
ED  3F            0607      
7B010000BE  01  1E0C0E      
                  0B0D      
                1D  0C      
                1C0A0B      
                1B  0A      
7D              1A0909      
                    08      
7B                0007      
ED056F01    06  1E0E0E      
    EF        38    0D      
    6F02        1D0D0C      
    EF          1C  0B      
    6F03        1B0C0A      
EF  EF          1A0B09      
      04          0008      
ED    00            07      
7B0100  5F  01281E0C0E      
                  0B0D      
                1D  0C      
                1C0A0B      
                1B  0A      
7D              1A0909      
                    08      
7B                0007      
ED05EF  BE  05  1E0E0E      
    1F01            0D      
    4F          1D0D0C      
    7F          1C0C0B      
    AF          1B0B0A      
EF  DF          1A0A09      
    0F02          0808      
ED  3F            0607      
7B0100005F  01  1E0C0E      
                  0B0D      
                1D  0C      
                1C0A0B      
                1B  0A      
7D              1A0909      
                    08      
7B                0007      
ED056F01BE  06  1E0E0E      
    EF        38    0D      
    6F02        1D0D0C      
    EF          1C  0B      
    6F03        1B0C0A      
EF  EF          1A0B09      
      04          0008      
ED    00            07      
7B0100      01281E0C0E      
                  0B0D      
                1D  0C      
                1C0A0B      
                1B  0A      
7D              1A0909      
                    08      
7B                0007      
ED05EF  5F  05  1E0E0E      
    1F01            0D      
    4F          1D0D0C      
    7F          1C0C0B      
    AF          1B0B0A      
EF  DF          1A0A09      
    0F02          0808      
ED  3F            0607      
7B010000BE  01  1E0C0E      
                  0B0D      
                1D  0C      
                1C0A0B      
                1B  0A      
7D              1A0909      
                    08      
7B                0007      
ED056F01    06  1E0E0E      
    EF        38    0D      
    6F02        1D0D0C      
    EF          1C  0B      
    6F03        1B0C0A      
EF  EF          1A0B09      
      04          0008      
ED    00            07      
7B0100  5F  01281E0C0E      
                  0B0D      
                1D  0C      
                1C0A0B      
                1B  0A      
7D              1A0909      
                    08      
7B                0007      
ED05EF  BE  05  1E0E0E      
    1F01            0D      
    4F          1D0D0C      
    7F          1C0C0B      
    AF          1B0B0A      
EF  DF          1A0A09      
    0F02          0808      
ED  3F            0607      
7B0100005F  01  1E0C0E      
                  0B0D      
                1D  0C      
                1C0A0B      
                1B  0A      
7D              1A0909      
                    08      
7B                0007      
ED056F01BE  06  1E0E0E      
    EF        38    0D      
    6F02        1D0D0C      
    EF          1C  0B      
    6F03        1B0C0A      
EF  EF          1A0B09      
      04          0008      
ED    00            07      
7B0100      01281E0C0E      
                  0B0D      
                1D  0C      
                1C0A0B      
                1B  0A      
7D              1A0909      
                    08      
7B                0007      
ED05EF  5F  05  1E0E0E      
    1F01            0D      
    4F          1D0D0C      
    7F          1C0C0B      
    AF          1B0B0A      
EF  DF          1A0A09      
    0F02          0808      
ED  3F            0607      
7B010000BE  01  1E0C0E      
                  0B0D      
                1D  0C      
                1C0A0B      
                1B  0A      
7D              1A0909      
                    08      
7B                0007      
ED056F01    06  1E0E0E      
    EF        38    0D      
    6F02        1D0D0C      
    EF          1C  0B      
    6F03        1B0C0A      
EF  EF          1A0B09      
      04          0008      
ED    00            07      
7B01    5F  05281E0E0E      
    1F01            0D      
    4F          1D0D0C      
    7F          1C0C0B      
    AF          1B0B0A      
7D  DF          1A0A09      
    0F02          0808      
7B  3F            0607      
ED05EF00        1E0E0E      
    1F01BE          0D      
    4F          1D0D0C      
    7F          1C0C0B      
    AF          1B0B0A      
EF  DF          1A0A09      
    0F02          0808      
ED  3F            0607      
7B01EF00        1E0E06      
    1F01            0A      
    4F          1D0D        
    7F          1C0C09      
    EF00        1B0E        
7D  1F01        1A  08      
    4F            0D07      
7B  7F            0C06      
ED056F  5F  06  1E0E0E    08
    EF  BE    381D  0D      
    6F02        1C0D0C      
    EF              0B      
    6F03          0C0A      
    EF          1B0B09      
      04          0008      
      00            07      
7B0100      01281E0C06      
                1D0B0A      
                1C          
                  0A09      
=
                1B0908      
                    07      
                  0006      
ED05EF      05  1E0E05      
    1F01        1D  04      
    4F          1C0D        
    7F            0C03      
    AF            0B        
    DF          1B0A02      
    0F02          08        
    3F            0601      
7B0100005F  01  1E0C0E      
        BE      1D0B0D      
                1C  0C      
                  0A0B      
                    0A      
                1B0909      
                    08      
                  0007      
ED056F01    06  1E0E06      
    EF        381D  0A      
    6F02        1C0D        
    EF              09      
    6F03          0C        
    EF          1B0B08      
      04          0007      
      00            06      
7B0100      01281E0C05      
                1D0B04      
                1C          
                  0A03      
=
                1B0902      
=
                  0001      
ED05EF  50  05  1E0E0E      
    1F019F      1D  0D      
    4F          1C0D0C      
    7F            0C0B      
    AF            0B0A      
    DF          1B0A09      
    0F02          0808      
    3F            0607      
7B010000    01  1E0C06      
                1D0B0A      
                1C          
                  0A09      
=
                1B0908      
                    07      
                  0006      
77076F0150  06  1E0E0E3C    
    EF  9F    381D  0D      
    6F02        1C0D0C      
    EF              0B      
    6F03          0C0A      
    EF          1B0B09      
      04          0008      
      00            07      
DE0100      01281E0C06      
                1D0B0A      
                1C          
                  0A09      
=
                1B0908      
                    07      
                  0006      
7707EF      05  1E0E05      
    1F01        1D  04      
    4F          1C0D        
    7F            0C03      
    AF            0B        
    DF          1B0A02      
    0F02          08        
    3F            0601      
DE0100005F  01  1E0C0E      
        BE      1D0B0D      
                1C  0C      
                  0A0B      
                    0A      
                1B0909      
                    08      
                  0007      
77076F01    06  1E0E06      
    EF        381D  0A      
    6F02        1C0D        
    EF              09      
    6F03          0C        
    EF          1B0B08      
      04          0007      
      00            06      
DE0100      01281E0C05      
                1D0B04      
                1C          
                  0A03      
=
                1B0902      
=
                  0001      
7707EF      05  1E0E        
    1F01        1D          
    4F          1C0D00      
    7F            0C        
    AF            0B        
    DF          1B0A        
    0F02          08        
    3F            06        
DE0100005F  01  1E0C0E      
        BE      1D0B0D      
                1C  0C      
                  0A0B      
                    0A      
                1B0909      
                    08      
                  0007      
A7066F0154  06  1E0E0E35    
    EF  A9    381D  0D      
    6F02        1C0D0C      
    EF              0B      
    6F03          0C0A      
    EF          1B0B09      
      04          0008      
      00            07      
AA0100      01281E0C06      
                1D0B0A      
                1C          
                  0A09      
=
                1B0908      
                    07      
                  0006      
A706EF  54  05  1E0E0E      
    1F01A9      1D  0D      
    4F          1C0D0C      
    7F            0C0B      
    AF            0B0A      
    DF          1B0A09      
    0F02          0808      
    3F            0607      
AA010000    01  1E0C06      
                1D0B0A      
                1C          
                  0A09      
=
                1B0908      
                    07      
                  0006      
A7066F015F  06  1E0E0E      
    EF  BE    381D  0D      
    6F02        1C0D0C      
    EF              0B      
    6F03          0C0A      
    EF          1B0B09      
      04          0008      
      00            07      
AA0100      01281E0C06      
                1D0B0A      
                1C          
                  0A09      
=
                1B0908      
                    07      
                  0006      
A706EF  6A  05  1E0E0E      
    1F01D5      1D  0D      
    4F          1C0D0C      
    7F            0C0B      
    AF            0B0A      
    DF          1B0A09      
    0F02          0808      
    3F            0607      
AA0100005F  01  1E0C0E      
        BE      1D0B0D      
                1C  0C      
                  0A0B      
                    0A      
                1B0909      
                    08      
                  0007      
ED056F01    06  1E0E0630    
    EF        381D  0A      
    6F02        1C0D        
    EF              09      
    6F03          0C        
    EF          1B0B08      
      04          0007      
      00            06      
7B0100      01281E0C05      
                1D0B04      
                1C          
                  0A03      
=
                1B0902      
=
                  0001      
ED05EF      05  1E0E        
    1F01        1D          
    4F          1C0D00      
    7F            0C        
    AF            0B        
    DF          1B0A        
    0F02          08        
    3F            06        
7B010000    01  1E0C        
                1D0B        
                1C          
                  0A        
=
                1B09        
=
                  00        
ED056F01    06  1E0E        
    EF        381D          
    6F02        1C0D        
    EF                      
    6F03          0C        
    EF          1B0B        
      04          00        
      00                    
7B01        05281E0E        
    1F01        1D          
    4F          1C0D        
    7F            0C        
    AF            0B        
    DF          1B0A        
    0F02          08        
    3F            06        
ED05EF005F      1E0E0E      
    1F01BE      1D  0D      
    4F          1C0D0C      
    7F            0C0B      
    AF            0B0A      
    DF          1B0A09      
    0F02          0808      
    3F            0607      
7B01EF00        1E0E06      
    1F01        1D  0A      
    4F          1C0D        
    7F            0C09      
    EF00          0E        
    1F01        1B  08      
    4F            0D07      
    7F            0C06      
ED056F  5F  06  1E0E0E      
    EF  BE    381D  0D      
    6F02        1C0D0C      
    EF              0B      
    6F03          0C0A      
    EF          1B0B09      
      04          0008      
      00            07      
7B0100      01281E0C06      
                1D0B0A      
                1C          
                  0A09      
=
                1B0908      
                    07      
                  0006      
ED05EF      05  1E0E05      
    1F01        1D  04      
    4F          1C0D        
    7F            0C03      
    AF            0B        
    DF          1B0A02      
    0F02          08        
    3F            0601      
7B0100005F  01  1E0C0E      
        BE      1D0B0D      
                1C  0C      
                  0A0B      
                    0A      
                1B0909      
                    08      
                  0007      
ED056F01    06  1E0E06      
    EF        381D  0A      
    6F02        1C0D        
    EF              09      
    6F03          0C        
    EF          1B0B08      
      04          0007      
      00            06      
7B0100      01281E0C05      
                1D0B04      
                1C          
                  0A03      
=
                1B0902      
=
                  0001      
ED05EF  50  05  1E0E0E      
    1F019F      1D  0D      
    4F          1C0D0C      
    7F            0C0B      
    AF            0B0A      
    DF          1B0A09      
    0F02          0808      
    3F            0607      
7B010000    01  1E0C06      
                1D0B0A      
                1C          
                  0A09      
=
                1B0908      
                    07      
                  0006      
77076F0150  06  1E0E0E3C    
    EF  9F    381D  0D      
    6F02        1C0D0C      
    EF              0B      
    6F03          0C0A      
    EF          1B0B09      
      04          0008      
      00            07      
DE0100      01281E0C06      
                1D0B0A      
                1C          
                  0A09      
=
                1B0908      
                    07      
                  0006      
7707EF      05  1E0E05      
    1F01        1D  04      
    4F          1C0D        
    7F            0C03      
    AF            0B        
    DF          1B0A02      
    0F02          08        
    3F            0601      
DE0100005F  01  1E0C0E      
        BE      1D0B0D      
                1C  0C      
                  0A0B      
                    0A      
                1B0909      
                    08      
                  0007      
77076F01    06  1E0E06      
    EF        381D  0A      
    6F02        1C0D        
    EF              09      
    6F03          0C        
    EF          1B0B08      
      04          0007      
      00            06      
DE0100      01281E0C05      
                1D0B04      
                1C          
                  0A03      
=
                1B0902      
=
                  0001      
7707EF      05  1E0E        
    1F01        1D          
    4F          1C0D00      
    7F            0C        
    AF            0B        
    DF          1B0A        
    0F02          08        
    3F            06        
DE0100005F  01  1E0C0E      
        BE      1D0B0D      
                1C  0C      
                  0A0B      
                    0A      
                1B0909      
                    08      
                  0007      
A7066F0154  06  1E0E0E35    
    EF  A9    381D  0D      
    6F02        1C0D0C      
    EF              0B      
    6F03          0C0A      
    EF          1B0B09      
      04          0008      
      00            07      
AA0100      01281E0C06      
                1D0B0A      
                1C          
                  0A09      
=
                1B0908      
                    07      
                  0006      
A706EF  54  05  1E0E0E      
    1F01A9      1D  0D      
    4F          1C0D0C      
    7F            0C0B      
    AF            0B0A      
    DF          1B0A09      
    0F02          0808      
    3F            0607      
AA010000    01  1E0C06      
                1D0B0A      
                1C          
                  0A09      
=
                1B0908      
                    07      
                  0006      
A7066F015F  06  1E0E0E      
    EF  BE    381D  0D      
    6F02        1C0D0C      
    EF              0B      
    6F03          0C0A      
    EF          1B0B09      
      04          0008      
      00            07      
AA0100      01281E0C06      
                1D0B0A      
                1C          
                  0A09      
=
                1B0908      
                    07      
                  0006      
A706EF  6A  05  1E0E0E      
    1F01D5      1D  0D      
    4F          1C0D0C      
    7F            0C0B      
    AF            0B0A      
    DF          1B0A09      
    0F02          0808      
    3F            0607      
AA0100005F  01  1E0C0E      
        BE      1D0B0D      
                1C  0C      
                  0A0B      
                    0A      
                1B0909      
                    08      
                  0007      
ED056F01    06  1E0E0630    
    EF        381D  0A      
    6F02        1C0D        
    EF              09      
    6F03          0C        
    EF          1B0B08      
      04          0007      
      00            06      
7B0100      01281E0C05      
                1D0B04      
                1C          
                  0A03      
=
                1B0902      
=
                  0001      
ED05EF      05  1E0E        
    1F01        1D          
    4F          1C0D00      
    7F            0C        
    AF            0B        
    DF          1B0A        
    0F02          08        
    3F            06        
7B010000    01  1E0C        
                1D0B        
                1C          
                  0A        
=
                1B09        
=
                  00        
ED056F01    06  1E0E        
    EF        381D          
    6F02        1C0D        
    EF                      
    6F03          0C        
    EF          1B0B        
      04          00        
      00                    
7B01        05281E0E        
    1F01        1D          
    4F          1C0D        
    7F            0C        
    AF            0B        
    DF          1B0A        
    0F02          08        
    3F            06        
ED05EF005F      1E0E0E      
    1F01BE      1D  0D      
    4F          1C0D0C      
    7F            0C0B      
    AF            0B0A      
    DF          1B0A09      
    0F02          0808      
    3F            0607      
7B01EF00        1E0E06      
    1F01        1D  0A      
    4F          1C0D        
    7F            0C09      
    EF00          0E        
    1F01        1B  08      
    4F            0D07      
    7F            0C06      
ED056F  5F  06  1E0E0E      
    EF  BE    381D  0D      
    6F02        1C0D0C      
    EF              0B      
    6F03          0C0A      
    EF          1B0B09      
      04          0008      
      00            07      
7B0100      01281E0C06      
                1D0B0A      
                1C          
                  0A09      
=
                1B0908      
                    07      
                  0006      
ED05EF      05  1E0E05      
    1F01        1D  04      
    4F          1C0D        
    7F            0C03      
    AF            0B        
    DF          1B0A02      
    0F02          08        
    3F            0601      
7B0100005F  01  1E0C0E      
        BE      1D0B0D      
                1C  0C      
                  0A0B      
                    0A      
                1B0909      
                    08      
                  0007      
ED056F01    06  1E0E06      
    EF        381D  0A      
    6F02        1C0D        
    EF              09      
    6F03          0C        
    EF          1B0B08      
      04          0007      
      00            06      
7B0100      01281E0C05      
                1D0B04      
                1C          
                  0A03      
=
                1B0902      
=
                  0001      
ED05EF  50  05  1E0E0E      
    1F019F      1D  0D      
    4F          1C0D0C      
    7F            0C0B      
    AF            0B0A      
    DF          1B0A09      
    0F02          0808      
    3F            0607      
7B010000    01  1E0C06      
                1D0B0A      
                1C          
                  0A09      
=
                1B0908      
                    07      
                  0006      
77076F0150  06  1E0E0E3C    
    EF  9F    381D  0D      
    6F02        1C0D0C      
    EF              0B      
    6F03          0C0A      
    EF          1B0B09      
      04          0008      
      00            07      
DE0100      01281E0C06      
                1D0B0A      
                1C          
                  0A09      
=
                1B0908      
                    07      
                  0006      
7707EF      05  1E0E05      
    1F01        1D  04      
    4F          1C0D        
    7F            0C03      
    AF            0B        
    DF          1B0A02      
    0F02          08        
    3F            0601      
DE0100005F  01  1E0C0E      
        BE      1D0B0D      
                1C  0C      
                  0A0B      
                    0A      
                1B0909      
                    08      
                  0007      
77076F01    06  1E0E06      
    EF        381D  0A      
    6F02        1C0D        
    EF              09      
    6F03          0C        
    EF          1B0B08      
      04          0007      
      00            06      
DE0100      01281E0C05      
                1D0B04      
                1C          
                  0A03      
=
                1B0902      
=
                  0001      
7707EF      05  1E0E        
    1F01        1D          
    4F          1C0D00      
    7F            0C        
    AF            0B        
    DF          1B0A        
    0F02          08        
    3F            06        
DE0100005F  01  1E0C0E      
        BE      1D0B0D      
                1C  0C      
                  0A0B      
                    0A      
                1B0909      
                    08      
                  0007      
A7066F0154  06  1E0E0E35    
    EF  A9    381D  0D      
    6F02        1C0D0C      
    EF              0B      
    6F03          0C0A      
    EF          1B0B09      
      04          0008      
      00            07      
AA0100      01281E0C06      
                1D0B0A      
                1C          
                  0A09      
=
                1B0908      
                    07      
                  0006      
A706EF  54  05  1E0E0E      
    1F01A9      1D  0D      
    4F          1C0D0C      
    7F            0C0B      
    AF            0B0A      
    DF          1B0A09      
    0F02          0808      
    3F            0607      
AA010000    01  1E0C06      
                1D0B0A      
                1C          
                  0A09      
=
                1B0908      
                    07      
                  0006      
A7066F015F  06  1E0E0E      
    EF  BE    381D  0D      
    6F02        1C0D0C      
    EF              0B      
    6F03          0C0A      
    EF          1B0B09      
      04          0008      
      00            07      
AA0100      01281E0C06      
                1D0B0A      
                1C          
                  0A09      
=
                1B0908      
                    07      
                  0006      
A706EF  6A  05  1E0E0E      
    1F01D5      1D  0D      
    4F          1C0D0C      
    7F            0C0B      
    AF            0B0A      
    DF          1B0A09      
    0F02          0808      
    3F            0607      
AA0100005F  01  1E0C0E      
        BE      1D0B0D      
                1C  0C      
                  0A0B      
                    0A      
                1B0909      
                    08      
                  0007      
ED056F01    06  1E0E0630    
    EF        381D  0A      
    6F02        1C0D        
    EF              09      
    6F03          0C        
    EF          1B0B08      
      04          0007      
      00            06      
7B0100      01281E0C05      
                1D0B04      
                1C          
                  0A03      
=
                1B0902      
=
                  0001      
ED05EF      05  1E0E        
    1F01        1D          
    4F          1C0D00      
    7F            0C        
    AF            0B        
    DF          1B0A        
    0F02          08        
    3F            06        
7B010000    01  1E0C        
                1D0B        
                1C          
                  0A        
=
                1B09        
=
                  00        
ED056F01    06  1E0E        
    EF        381D          
    6F02        1C0D        
    EF                      
    6F03          0C        
    EF          1B0B        
      04          00        
      00                    
7B01        05281E0E        
    1F01        1D          
    4F          1C0D        
    7F            0C        
    AF            0B        
    DF          1B0A        
    0F02          08        
    3F            06        
ED05EF005F      1E0E0E      
    1F01BE      1D  0D      
    4F          1C0D0C      
    7F            0C0B      
    AF            0B0A      
    DF          1B0A09      
    0F02          0808      
    3F            0607      
7B01EF00        1E0E06      
    1F01        1D  0A      
    4F          1C0D        
    7F            0C09      
    EF00          0E        
    1F01        1B  08      
    4F            0D07      
    7F            0C06      
ED056F  5F  06  1E0E0E      
    EF  BE    381D  0D      
    6F02        1C0D0C      
    EF              0B      
    6F03          0C0A      
    EF          1B0B09      
      04          0008      
      00            07      
7B0100      01281E0C06      
                1D0B0A      
                1C          
                  0A09      
=
                1B0908      
                    07      
                  0006      
ED05EF      05  1E0E05      
    1F01        1D  04      
    4F          1C0D        
    7F            0C03      
    AF            0B        
    DF          1B0A02      
    0F02          08        
    3F            0601      
7B0100005F  01  1E0C0E      
        BE      1D0B0D      
                1C  0C      
                  0A0B      
                    0A      
                1B0909      
                    08      
                  0007      
ED056F01    06  1E0E06      
    EF        381D  0A      
    6F02        1C0D        
    EF              09      
    6F03          0C        
    EF          1B0B08      
      04          0007      
      00            06      
7B0100      01281E0C05      
                1D0B04      
                1C          
                  0A03      
=
                1B0902      
=
                  0001      
ED05EF  50  05  1E0E0E      
    1F019F      1D  0D      
    4F          1C0D0C      
    7F            0C0B      
    AF            0B0A      
    DF          1B0A09      
    0F02          0808      
    3F            0607      
7B010000    01  1E0C06      
                1D0B0A      
                1C          
                  0A09      
=
                1B0908      
                    07      
                  0006      
77076F0150  06  1E0E0E3C    
    EF  9F    381D  0D      
    6F02        1C0D0C      
    EF              0B      
    6F03          0C0A      
    EF          1B0B09      
      04          0008      
      00            07      
DE0100      01281E0C06      
                1D0B0A      
                1C          
                  0A09      
=
                1B0908      
                    07      
                  0006      
7707EF      05  1E0E05      
    1F01        1D  04      
    4F          1C0D        
    7F            0C03      
    AF            0B        
    DF          1B0A02      
    0F02          08        
    3F            0601      
DE0100005F  01  1E0C0E      
        BE      1D0B0D      
                1C  0C      
                  0A0B      
                    0A      
                1B0909      
                    08      
                  0007      
77076F01    06  1E0E06      
    EF        381D  0A      
    6F02        1C0D        
    EF              09      
    6F03          0C        
    EF          1B0B08      
      04          0007      
      00            06      
DE0100      01281E0C05      
                1D0B04      
                1C          
                  0A03      
=
                1B0902      
=
                  0001      
7707EF      05  1E0E        
    1F01        1D          
    4F          1C0D00      
    7F            0C        
    AF            0B        
    DF          1B0A        
    0F02          08        
    3F            06        
DE0100005F  01  1E0C0E      
        BE      1D0B0D      
                1C  0C      
                  0A0B      
                    0A      
                1B0909      
                    08      
                  0007      
A7066F0154  06  1E0E0E35    
    EF  A9    381D  0D      
    6F02        1C0D0C      
    EF              0B      
    6F03          0C0A      
    EF          1B0B09      
      04          0008      
      00            07      
AA0100      01281E0C06      
                1D0B0A      
                1C          
                  0A09      
=
                1B0908      
                    07      
                  0006      
A706EF  54  05  1E0E0E      
    1F01A9      1D  0D      
    4F          1C0D0C      
    7F            0C0B      
    AF            0B0A      
    DF          1B0A09      
    0F02          0808      
    3F            0607      
AA010000    01  1E0C06      
                1D0B0A      
                1C          
                  0A09      
=
                1B0908      
                    07      
                  0006      
A7066F015F  06  1E0E0E      
    EF  BE    381D  0D      
    6F02        1C0D0C      
    EF              0B      
    6F03          0C0A      
    EF          1B0B09      
      04          0008      
      00            07      
AA0100      01281E0C06      
                1D0B0A      
                1C          
                  0A09      
=
                1B0908      
                    07      
                  0006      
A706EF  6A  05  1E0E0E      
    1F01D5      1D  0D      
    4F          1C0D0C      
    7F            0C0B      
    AF            0B0A      
    DF          1B0A09      
    0F02          0808      
    3F            0607      
AA0100005F  01  1E0C0E      
        BE      1D0B0D      
                1C  0C      
                  0A0B      
                    0A      
                1B0909      
                    08      
                  0007      
ED056F01    06  1E0E0630    
    EF        381D  0A      
    6F02        1C0D        
    EF              09      
    6F03          0C        
    EF          1B0B08      
      04          0007      
      00            06      
7B0100      01281E0C05      
                1D0B04      
                1C          
                  0A03      
=
                1B0902      
=
                  0001      
ED05EF      05  1E0E        
    1F01        1D          
    4F          1C0D00      
    7F            0C        
    AF            0B        
    DF          1B0A        
    0F02          08        
    3F            06        
7B010000    01  1E0C        
                1D0B        
                1C          
                  0A        
=
                1B09        
=
                  00        
ED056F01    06  1E0E        
    EF        381D          
    6F02        1C0D        
    EF                      
    6F03          0C        
    EF          1B0B        
      04          00        
      00                    
7B01        05281E0E        
    1F01        1D          
    4F          1C0D        
    7F            0C        
    AF            0B        
    DF          1B0A        
    0F02          08        
    3F            06        
ED05EF005F      1E0E0E      
    1F01BE      1D  0D      
    4F          1C0D0C      
    7F            0C0B      
    AF            0B0A      
    DF          1B0A09      
    0F02          0808      
    3F            0607      
7B01EF00        1E0E06      
    1F01        1D  0A      
    4F          1C0D        
    7F            0C09      
    EF00          0E        
    1F01        1B  08      
    4F            0D07      
    7F            0C06      
ED056F  5F  06  1E0E0E      
    EF  BE    381D          
    6F02        1C0D0D      
    EF              0C      
    6F03          0C0B      
    EF  C0      1B0B0A      
      04          00        
      00BE                  
7B0100      01281E0C        
        BC      1D0B        
                1C          
        BE        0A        
=
        C0      1B09        
=
        BE        00        
ED05EF      05  1E0E        
    1F01BC      1D          
    4F          1C0D        
    7F  BE        0C        
    AF            0B        
    DF  C0      1B0A        
    0F02          08        
    3F  BE        06        
7B01000050  01  1E0C0E      
        9F      1D0B        
                1C  0D      
                  0A0C      
                    0B      
        A1      1B090A      
=
        9F        00        
FC046F01    06  1E0E  28    
    EF  9D    381D          
    6F02        1C0D        
    EF  9F                  
    6F03          0C        
    EF  A1      1B0B        
      04          00        
      009F                  
3F0100      01281E0C        
        9D      1D0B        
                1C          
        9F        0A        
=
        A1      1B09        
=
        9F        00        
FC04EF  3F  05  1E0E0E      
    1F017F      1D          
    4F          1C0D0D      
    7F            0C0C      
    AF            0B0B      
    DF  81      1B0A0A      
    0F02          08        
    3F  7F        06        
3F010000    01  1E0C        
        7D      1D0B        
                1C          
        7F        0A        
=
        81      1B09        
=
        7F        00        
70046F013C  06  1E0E0E24    
    EF  77    381D          
    6F02        1C0D0D      
    EF              0C      
    6F03          0C0B      
    EF  79      1B0B0A      
      04          00        
      0077                  
1C0100      01281E0C        
        75      1D0B        
                1C          
        77        0A        
=
        79      1B09        
=
        77        00        
7004EF      05  1E0E        
    1F0175      1D          
    4F          1C0D        
    7F  77        0C        
    AF            0B        
    DF  79      1B0A        
    0F02          08        
    3F  77        06        
1C01000047  01  1E0C0E      
        8E      1D0B        
                1C  0D      
                  0A0C      
                    0B      
        90      1B090A      
=
        8E        00        
31046F01    06  1E0E  22    
    EF  8C    381D          
    6F02        1C0D        
    EF  8E                  
    6F03          0C        
    EF  90      1B0B        
      04          00        
      008E                  
0C0100      01281E0C        
        8C      1D0B        
                1C          
        8E        0A        
=
        90      1B09        
=
        8E        00        
3104EF  6A  05  1E0E0E      
    1F01D5      1D          
    4F          1C0D0D      
    7F            0C0C      
    AF            0B0B      
    DF  D7      1B0A0A      
    0F02          08        
    3F  D5        06        
0C010000    01  1E0C        
        D3      1D0B        
                1C          
        D5        0A        
=
        D7      1B09        
=
        D5        00        
70046F015F  06  1E0E0E24    
    EF  BE    381D          
    6F02        1C0D0D      
    EF              0C      
    6F03          0C0B      
    EF  C0      1B0B0A      
      04          00        
      00BE                  
1C0100      01281E0C        
        BC      1D0B        
                1C          
        BE        0A        
=
        C0      1B09        
=
        BE        00        
7004EF      05  1E0E        
    1F01BC      1D          
    4F          1C0D        
    7F  BE        0C        
    AF            0B        
    DF  C0      1B0A        
    0F02          08        
    3F  BE        06        
1C010000    01  1E0C        
        BC      1D0B        
                1C          
        BE        0A        
=
        C0      1B09        
=
        BE        00        
70046F01    06  1E0E        
    EF  BC    381D          
    6F02        1C0D        
    EF  BE                  
    6F03          0C        
    EF  C0      1B0B        
      04          00        
      00BE                  
1C0100      01281E0C        
        BC      1D0B        
                1C          
        BE        0A        
=
        C0      1B09        
=
        BE        00        
7004EF      05  1E0E        
    1F01BC      1D          
    4F          1C0D        
    7F  BE        0C        
    AF            0B        
    DF  C0      1B0A        
    0F02          08        
    3F  BE        06        
1C010000    01  1E0C        
        BC      1D0B        
                1C          
        BE        0A        
=
        C0      1B09        
=
        BE        00        
FC046F016A  06  1E0E0E28    
    EF  D5    381D          
    6F02        1C0D0D      
    EF              0C      
    6F03          0C0B      
    EF  D7      1B0B0A      
      04          00        
      00D5                  
3F0100      01281E0C        
        D3      1D0B        
                1C          
        D5        0A        
=
        D7      1B09        
=
        D5        00        
FC04EF      05  1E0E        
    1F01D3      1D          
    4F          1C0D        
    7F  D5        0C        
    AF            0B        
    DF  D7      1B0A        
    0F02          08        
    3F  D5        06        
3F010000    01  1E0C        
        D3      1D0B        
                1C          
        D5        0A        
=
        D7      1B09        
=
        D5        00        
FC046F01    06  1E0E        
    EF  D3    381D          
    6F02        1C0D        
    EF  D5                  
    6F03          0C        
    EF  D7      1B0B        
      04          00        
      00D5                  
3F01        05281E0E        
    1F01D3      1D          
    4F          1C0D        
    7F  D5        0C        
    AF            0B        
    DF  D7      1B0A        
    0F02          08        
    3F  D5        06        
FC04EF00        1E0E        
    1F01D3      1D          
    4F          1C0D        
    7F  D5        0C        
    AF            0B        
    DF  D7      1B0A        
    0F02          08        
    3F  D5        06        
3F01EF00        1E0E        
    1F01D3      1D          
    4F          1C0D        
    7F  D5        0C        
    EF00          0E        
    1F01D7      1B          
    4F            0D        
    7F  D5        0C        
ED056F  5F  06  1E0E0E30    
    EF  BE    381D          
    6F02        1C0D0D      
    EF              0C      
    6F03          0C0B      
    EF  C0      1B0B0A      
      04          00        
      00BE                  
7B0100      01281E0C        
        BC      1D0B        
                1C          
        BE        0A        
=
        C0      1B09        
=
        BE        00        
ED05EF      05  1E0E        
    1F01BC      1D          
    4F          1C0D        
    7F  BE        0C        
    AF            0B        
    DF  C0      1B0A        
    0F02          08        
    3F  BE        06        
7B01000050  01  1E0C0E      
        9F      1D0B        
                1C  0D      
                  0A0C      
                    0B      
        A1      1B090A      
=
        9F        00        
FC046F01    06  1E0E  28    
    EF  9D    381D          
    6F02        1C0D        
    EF  9F                  
    6F03          0C        
    EF  A1      1B0B        
      04          00        
      009F                  
3F0100      01281E0C        
        9D      1D0B        
                1C          
        9F        0A        
=
        A1      1B09        
=
        9F        00        
FC04EF  3F  05  1E0E0E      
    1F017F      1D          
    4F          1C0D0D      
    7F            0C0C      
    AF            0B0B      
    DF  81      1B0A0A      
    0F02          08        
    3F  7F        06        
3F010000    01  1E0C        
        7D      1D0B        
                1C          
        7F        0A        
=
        81      1B09        
=
        7F        00        
70046F013C  06  1E0E0E24    
    EF  77    381D          
    6F02        1C0D0D      
    EF              0C      
    6F03          0C0B      
    EF  79      1B0B0A      
      04          00        
      0077                  
1C0100      01281E0C        
        75      1D0B        
                1C          
        77        0A        
=
        79      1B09        
=
        77        00        
7004EF      05  1E0E        
    1F0175      1D          
    4F          1C0D        
    7F  77        0C        
    AF            0B        
    DF  79      1B0A        
    0F02          08        
    3F  77        06        
1C01000047  01  1E0C0E      
        8E      1D0B        
                1C  0D      
                  0A0C      
                    0B      
        90      1B090A      
=
        8E        00        
31046F01    06  1E0E  22    
    EF  8C    381D          
    6F02        1C0D        
    EF  8E                  
    6F03          0C        
    EF  90      1B0B        
      04          00        
      008E                  
0C0100      01281E0C        
        8C      1D0B        
                1C          
        8E        0A        
=
        90      1B09        
=
        8E        00        
3104EF  6A  05  1E0E0E      
    1F01D5      1D          
    4F          1C0D0D      
    7F            0C0C      
    AF            0B0B      
    DF  D7      1B0A0A      
    0F02          08        
    3F  D5        06        
0C010000    01  1E0C        
        D3      1D0B        
                1C          
        D5        0A        
=
        D7      1B09        
=
        D5        00        
70046F015F  06  1E0E0E24    
    EF  BE    381D          
    6F02        1C0D0D      
    EF              0C      
    6F03          0C0B      
    EF  C0      1B0B0A      
      04          00        
      00BE                  
1C0100      01281E0C        
        BC      1D0B        
                1C          
        BE        0A        
=
        C0      1B09        
=
        BE        00        
7004EF      05  1E0E        
    1F01BC      1D          
    4F          1C0D        
    7F  BE        0C        
    AF            0B        
    DF  C0      1B0A        
    0F02          08        
    3F  BE        06        
1C010000    01  1E0C        
        BC      1D0B        
                1C          
        BE        0A        
=
        C0      1B09        
=
        BE        00        
70046F01    06  1E0E        
    EF  BC    381D          
    6F02        1C0D        
    EF  BE                  
    6F03          0C        
    EF  C0      1B0B        
      04          00        
      00BE                  
1C0100      01281E0C        
        BC      1D0B        
                1C          
        BE        0A        
=
        C0      1B09        
=
        BE        00        
7004EF      05  1E0E        
    1F01BC      1D          
    4F          1C0D        
    7F  BE        0C        
    AF            0B        
    DF  C0      1B0A        
    0F02          08        
    3F  BE        06        
1C010000    01  1E0C        
        BC      1D0B        
                1C          
        BE        0A        
=
        C0      1B09        
=
        BE        00        
FC046F016A  06  1E0E0E28    
    EF  D5    381D          
    6F02        1C0D0D      
    EF              0C      
    6F03          0C0B      
    EF  D7      1B0B0A      
      04          00        
      00D5                  
3F0100      01281E0C        
        D3      1D0B        
                1C          
        D5        0A        
=
        D7      1B09        
=
        D5        00        
FC04EF      05  1E0E        
    1F01D3      1D          
    4F          1C0D        
    7F  D5        0C        
    AF            0B        
    DF  D7      1B0A        
    0F02          08        
    3F  D5        06        
3F010000    01  1E0C        
        D3      1D0B        
                1C          
        D5        0A        
=
        D7      1B09        
=
        D5        00        
FC046F01    06  1E0E        
    EF  D3    381D          
    6F02        1C0D        
    EF  D5                  
    6F03          0C        
    EF  D7      1B0B        
      04          00        
      00D5                  
3F01        05281E0E        
    1F01D3      1D          
    4F          1C0D        
    7F  D5        0C        
    AF            0B        
    DF  D7      1B0A        
    0F02          08        
    3F  D5        06        
FC04EF00        1E0E        
    1F01D3      1D          
    4F          1C0D        
    7F  D5        0C        
    AF            0B        
    DF  D7      1B0A        
    0F02          08        
    3F  D5        06        
3F01EF00        1E0E        
    1F01D3      1D          
    4F          1C0D        
    7F  D5        0C        
    EF00          0E        
    1F01D7      1B          
    4F            0D        
    7F  D5        0C        
ED056F  5F  06  1E0E0E30  08
    EF        38    0D      
    6F027F      1D0D0C      
    EF          1C  0B      
    6F035F      1B0C0A      
EF  EF          1A0B09      
      047F        0008      
ED    00            07      
7B0100  5F  01281E0C06      
                  0B0A      
        7F      1D          
                1C0A09      
        5F      1B          
7D              1A0908      
        7F          07      
7B                0006      
ED05EF  5F  05  1E0E05      
    1F01            04      
    4F  7F      1D0D        
    7F          1C0C03      
    AF  5F      1B0B        
EF  DF          1A0A02      
    0F027F        08        
ED  3F            0601      
7B0100005F  01  1E0C        
                  0B        
        7F      1D  00      
                1C0A        
        5F      1B          
7D              1A09        
        7F                  
7B                00        
ED056F0135  06  1E0E0E      
    EF  6A    38    0D      
    6F02        1D0D0C      
    EF          1C  0B      
    6F03        1B0C0A      
EF  EF          1A0B09      
      04          0008      
ED    00            07      
7B0100  35  01281E0C0E      
        6A        0B0D      
                1D  0C      
                1C0A0B      
                1B  0A      
7D              1A0909      
                    08      
7B                0007      
ED05EF      05  1E0E06      
    1F01            0A      
    4F          1D0D        
    7F          1C0C09      
    AF          1B0B        
EF  DF          1A0A08      
    0F02          0807      
ED  3F            0606      
7B0100005F  01  1E0C0E      
                  0B0D      
        7F      1D  0C      
                1C0A0B      
        5F      1B  0A      
7D              1A0909      
        7F          08      
7B                0007      
ED056F017B0106  1E0E0E      
    EF  BE00  38    0D      
    6F025F      1D0D0C      
    EF  7B01    1C  0B      
    6F03BE00    1B0C0A      
EF  EF  5F      1A0B09      
      047B01      0008      
ED    00BE00        07      
7B0100  5F  01281E0C06      
        7B01      0B0A      
        BE00    1D          
        5F      1C0A09      
        7B01    1B          
7D      BE00    1A0908      
        5F          07      
7B      7B01      0006      
ED05EF      05  1E0E0E      
    1F01BE00        0D      
    4F  5F      1D0D0C      
    7F  7B01    1C0C0B      
    AF  BE00    1B0B0A      
EF  DF  5F      1A0A09      
    0F027B01      0808      
ED  3F  BE00      0607      
7B0100005F  01  1E0C06      
        7B01      0B0A      
        BE00    1D          
        5F      1C0A09      
        7B01    1B          
7D      BE00    1A0908      
        5F          07      
7B      7B01      0006      
FC046F01BE0006  1E0E0528    
    EF  5F    38    04      
    6F027B01    1D0D        
    EF  BE00    1C  03      
    6F035F      1B0C        
FE  EF  7B01    1A0B02      
      04BE00      00        
FC    005F          01      
380000  7B0101281E0C  0E  08
        BE00    1D0B        
        5F      1C  00      
        7B01      0A        
        BE00                
        5F      1B09        
        7B01                
        BE00      00        
7004EF      05  1E0E  24  08
    1F01                    
    4F          1D0D        
    7F          1C0C        
    AF          1B0B        
72  DF          1A0A        
    0F02          08        
70  3F            06        
1C010000    01  1E0C        
                  0B        
                1D          
                1C0A        
                1B          
1E              1A09        
=
1C                00        
ED056F015F  06  1E0E0E30    
    EF        38    0D      
    6F027F      1D0D0C      
    EF          1C  0B      
    6F035F      1B0C0A      
EF  EF          1A0B09      
      047F        0008      
ED    00            07      
7B0100  5F  01281E0C06      
                  0B0A      
        7F      1D          
                1C0A09      
        5F      1B          
7D              1A0908      
        7F          07      
7B                0006      
ED05EF  5F  05  1E0E05      
    1F01            04      
    4F  7F      1D0D        
    7F          1C0C03      
    AF  5F      1B0B        
EF  DF          1A0A02      
    0F027F        08        
ED  3F            0601      
7B0100005F  01  1E0C        
                  0B        
        7F      1D  00      
                1C0A        
        5F      1B          
7D              1A09        
        7F                  
7B                00        
ED056F0135  06  1E0E0E      
    EF  6A    38    0D      
    6F02        1D0D0C      
    EF          1C  0B      
    6F03        1B0C0A      
EF  EF          1A0B09      
      04          0008      
ED    00            07      
7B0100  35  01281E0C0E      
        6A        0B0D      
                1D  0C      
                1C0A0B      
                1B  0A      
7D              1A0909      
                    08      
7B                0007      
ED05EF      05  1E0E06      
    1F01            0A      
    4F          1D0D        
    7F          1C0C09      
    AF          1B0B        
EF  DF          1A0A08      
    0F02          0807      
ED  3F            0606      
7B0100005F  01  1E0C0E      
                  0B0D      
        7F      1D  0C      
                1C0A0B      
        5F      1B  0A      
7D              1A0909      
        7F          08      
7B                0007      
ED056F017B0106  1E0E0E      
    EF  BE00  38    0D      
    6F025F      1D0D0C      
    EF  7B01    1C  0B      
    6F03BE00    1B0C0A      
EF  EF  5F      1A0B09      
      047B01      0008      
ED    00BE00        07      
7B0100  5F  01281E0C06      
        7B01      0B0A      
        BE00    1D          
        5F      1C0A09      
        7B01    1B          
7D      BE00    1A0908      
        5F          07      
7B      7B01      0006      
ED05EF      05  1E0E0E      
    1F01BE00        0D      
    4F  5F      1D0D0C      
    7F  7B01    1C0C0B      
    AF  BE00    1B0B0A      
EF  DF  5F      1A0A09      
    0F027B01      0808      
ED  3F  BE00      0607      
7B0100005F  01  1E0C06      
        7B01      0B0A      
        BE00    1D          
        5F      1C0A09      
        7B01    1B          
7D      BE00    1A0908      
        5F          07      
7B      7B01      0006      
70046F01BE0006  1E0E0524    
    EF  5F    38    04      
    6F027B01    1D0D        
    EF  BE00    1C  03      
    6F035F      1B0C        
72  EF  7B01    1A0B02      
      04BE00      00        
70    005F          01      
3800    7B0105281E0E  0E  08
    1F01BE00    1D          
    4F  5F      1C0D00      
    7F  7B01      0C        
    AF  BE00      0B        
    DF  5F      1B0A        
    0F027B01      08        
    3F  BE00      06        
FC04EF00        1E0E  28  08
    1F01                    
    4F          1D0D        
    7F          1C0C        
    AF          1B0B        
FE  DF          1A0A        
    0F02          08        
FC  3F            06        
3F01EF00        1E0E        
    1F01                    
    4F          1D0D        
    7F          1C0C        
    EF00        1B0E        
41  1F01        1A          
    4F            0D        
3F  7F            0C        
ED056F  5F  06  1E0E0E30    
    EF        38    0D      
    6F027F      1D0D0C      
    EF          1C  0B      
    6F035F      1B0C0A      
EF  EF          1A0B09      
      047F        0008      
ED    00            07      
7B0100  5F  01281E0C06      
                  0B0A      
        7F      1D          
                1C0A09      
        5F      1B          
7D              1A0908      
        7F          07      
7B                0006      
ED05EF  5F  05  1E0E05      
    1F01            04      
    4F  7F      1D0D        
    7F          1C0C03      
    AF  5F      1B0B        
EF  DF          1A0A02      
    0F027F        08        
ED  3F            0601      
7B0100005F  01  1E0C        
                  0B        
        7F      1D  00      
                1C0A        
        5F      1B          
7D              1A09        
        7F                  
7B                00        
ED056F0135  06  1E0E0E      
    EF  6A    38    0D      
    6F02        1D0D0C      
    EF          1C  0B      
    6F03        1B0C0A      
EF  EF          1A0B09      
      04          0008      
ED    00            07      
7B0100  35  01281E0C0E      
        6A        0B0D      
                1D  0C      
                1C0A0B      
                1B  0A      
7D              1A0909      
                    08      
7B                0007      
ED05EF      05  1E0E06      
    1F01            0A      
    4F          1D0D        
    7F          1C0C09      
    AF          1B0B        
EF  DF          1A0A08      
    0F02          0807      
ED  3F            0606      
7B0100005F  01  1E0C0E      
                  0B0D      
        7F      1D  0C      
                1C0A0B      
        5F      1B  0A      
7D              1A0909      
        7F          08      
7B                0007      
ED056F017B0106  1E0E0E      
    EF  BE00  38    0D      
    6F025F      1D0D0C      
    EF  7B01    1C  0B      
    6F03BE00    1B0C0A      
EF  EF  5F      1A0B09      
      047B01      0008      
ED    00BE00        07      
7B0100  5F  01281E0C06      
        7B01      0B0A      
        BE00    1D          
        5F      1C0A09      
        7B01    1B          
7D      BE00    1A0908      
        5F          07      
7B      7B01      0006      
ED05EF      05  1E0E0E      
    1F01BE00        0D      
    4F  5F      1D0D0C      
    7F  7B01    1C0C0B      
    AF  BE00    1B0B0A      
EF  DF  5F      1A0A09      
    0F027B01      0808      
ED  3F  BE00      0607      
7B0100005F  01  1E0C06      
        7B01      0B0A      
        BE00    1D          
        5F      1C0A09      
        7B01    1B          
7D      BE00    1A0908      
        5F          07      
7B      7B01      0006      
FC046F01BE0006  1E0E0528    
    EF  5F    38    04      
    6F027B01    1D0D        
    EF  BE00    1C  03      
    6F035F      1B0C        
FE  EF  7B01    1A0B02      
      04BE00      00        
FC    005F          01      
380000  7B0101281E0C  0E  08
        BE00    1D0B        
        5F      1C  00      
        7B01      0A        
        BE00                
        5F      1B09        
        7B01                
        BE00      00        
7004EF      05  1E0E  24  08
    1F01                    
    4F          1D0D        
    7F          1C0C        
    AF          1B0B        
72  DF          1A0A        
    0F02          08        
70  3F            06        
1C010000    01  1E0C        
                  0B        
                1D          
                1C0A        
                1B          
1E              1A09        
=
1C                00        
ED056F015F  06  1E0E0E30    
    EF        38    0D      
    6F027F      1D0D0C      
    EF          1C  0B      
    6F035F      1B0C0A      
EF  EF          1A0B09      
      047F        0008      
ED    00            07      
7B0100  5F  01281E0C06      
                  0B0A      
        7F      1D          
                1C0A09      
        5F      1B          
7D              1A0908      
        7F          07      
7B                0006      
ED05EF  5F  05  1E0E05      
    1F01            04      
    4F  7F      1D0D        
    7F          1C0C03      
    AF  5F      1B0B        
EF  DF          1A0A02      
    0F027F        08        
ED  3F            0601      
7B0100005F  01  1E0C        
                  0B        
        7F      1D  00      
                1C0A        
        5F      1B          
7D              1A09        
        7F                  
7B                00        
ED056F0135  06  1E0E0E      
    EF  6A    38    0D      
    6F02        1D0D0C      
    EF          1C  0B      
    6F03        1B0C0A      
EF  EF          1A0B09      
      04          0008      
ED    00            07      
7B0100  35  01281E0C0E      
        6A        0B0D      
                1D  0C      
                1C0A0B      
                1B  0A      
7D              1A0909      
                    08      
7B                0007      
ED05EF      05  1E0E06      
    1F01            0A      
    4F          1D0D        
    7F          1C0C09      
    AF          1B0B        
EF  DF          1A0A08      
    0F02          0807      
ED  3F            0606      
7B0100005F  01  1E0C0E      
                  0B0D      
        7F      1D  0C      
                1C0A0B      
        5F      1B  0A      
7D              1A0909      
        7F          08      
7B                0007      
ED056F017B0106  1E0E0E      
    EF  BE00  38    0D      
    6F025F      1D0D0C      
    EF  7B01    1C  0B      
    6F03BE00    1B0C0A      
EF  EF  5F      1A0B09      
      047B01      0008      
ED    00BE00        07      
7B0100  5F  01281E0C06      
        7B01      0B0A      
        BE00    1D          
        5F      1C0A09      
        7B01    1B          
7D      BE00    1A0908      
        5F          07      
7B      7B01      0006      
ED05EF      05  1E0E0E      
    1F01BE00        0D      
    4F  5F      1D0D0C      
    7F  7B01    1C0C0B      
    AF  BE00    1B0B0A      
EF  DF  5F      1A0A09      
    0F027B01      0808      
ED  3F  BE00      0607      
7B0100005F  01  1E0C06      
        7B01      0B0A      
        BE00    1D          
        5F      1C0A09      
        7B01    1B          
7D      BE00    1A0908      
        5F          07      
7B      7B01      0006      
70046F01BE0006  1E0E0524    
    EF  5F    38    04      
    6F027B01    1D0D        
    EF  BE00    1C  03      
    6F035F      1B0C        
72  EF  7B01    1A0B02      
      04BE00      00        
70    005F          01      
3800    7B0105281E0E  0E  08
    1F01BE00    1D          
    4F  5F      1C0D00      
    7F  7B01      0C        
    AF  BE00      0B        
    DF  5F      1B0A        
    0F027B01      08        
    3F  BE00      06        
FC04EF00        1E0E  28  08
    1F01                    
    4F          1D0D        
    7F          1C0C        
    AF          1B0B        
FE  DF          1A0A        
    0F02          08        
FC  3F            06        
3F01EF00        1E0E        
    1F01                    
    4F          1D0D        
    7F          1C0C        
    EF00        1B0E        
41  1F01        1A          
    4F            0D        
3F  7F            0C        
ED056F  5F  06  1E0E0E30  08
    EF        381D  0D      
    6F027F      1C0D0C      
    EF              0B      
    6F035F        0C0A      
    EF          1B0B09      
      047F        0008      
      00            07      
7B0100  5F  01281E0C06      
                1D0B0A      
        7F      1C          
                  0A09      
        5F                  
                1B0908      
        7F          07      
                  0006      
ED05EF  5F  05  1E0E05      
    1F01        1D  04      
    4F  7F      1C0D        
    7F            0C03      
    AF  5F        0B        
    DF          1B0A02      
    0F027F        08        
    3F            0601      
7B0100005F  01  1E0C        
                1D0B        
        7F      1C  00      
                  0A        
        5F                  
                1B09        
        7F                  
                  00        
ED056F0135  06  1E0E0E      
    EF  6A    381D  0D      
    6F02        1C0D0C      
    EF              0B      
    6F03          0C0A      
    EF          1B0B09      
      04          0008      
      00            07      
7B0100  35  01281E0C0E      
        6A      1D0B0D      
                1C  0C      
                  0A0B      
                    0A      
                1B0909      
                    08      
                  0007      
ED05EF      05  1E0E06      
    1F01        1D  0A      
    4F          1C0D        
    7F            0C09      
    AF            0B        
    DF          1B0A08      
    0F02          0807      
    3F            0606      
7B0100005F  01  1E0C0E      
                1D0B0D      
        7F      1C  0C      
                  0A0B      
        5F          0A      
                1B0909      
        7F          08      
                  0007      
ED056F017B0106  1E0E0E      
    EF  BE00  381D  0D      
    6F025F      1C0D0C      
    EF  7B01        0B      
    6F03BE00      0C0A      
    EF  5F      1B0B09      
      047B01      0008      
      00BE00        07      
7B0100  5F  01281E0C06      
        7B01    1D0B0A      
        BE00    1C          
        5F        0A09      
        7B01                
        BE00    1B0908      
        5F          07      
        7B01      0006      
ED05EF      05  1E0E0E      
    1F01BE00    1D  0D      
    4F  5F      1C0D0C      
    7F  7B01      0C0B      
    AF  BE00      0B0A      
    DF  5F      1B0A09      
    0F027B01      0808      
    3F  BE00      0607      
7B0100005F  01  1E0C06      
        7B01    1D0B0A      
        BE00    1C          
        5F        0A09      
        7B01                
        BE00    1B0908      
        5F          07      
        7B01      0006      
ED056F01BE0006  1E0E05      
    EF  5F    381D  04      
    6F027B01    1C0D        
    EF  BE00        03      
    6F035F        0C        
    EF  7B01    1B0B02      
      04BE00      00        
      005F          01      
7B01    7B0105281E0E        
    1F01BE00    1D          
    4F  5F      1C0D00      
    7F  7B01      0C        
    AF  BE00      0B        
    DF  5F      1B0A        
    0F027B01      08        
    3F  BE00      06        
ED05EF00        1E0E        
    1F01        1D          
    4F          1C0D        
    7F            0C        
    AF            0B        
    DF          1B0A        
    0F02          08        
    3F            06        
7B01EF00        1E0E        
    1F01        1D          
    4F          1C0D        
    7F            0C        
    EF00          0E        
    1F01        1B          
    4F            0D        
    7F            0C        
ED056F  5F  06  1E0E0E      
    EF  BE    381D  0D      
    6F02        1C0D0C      
    EF              0B      
    6F03          0C0A      
    EF          1B0B09      
      04          0008      
      00            07      
7B0100      01281E0C06      
                1D0B0A      
                1C          
                  0A09      
=
                1B0908      
                    07      
                  0006      
ED05EF  50  05  1E0E0E      
    1F019F      1D  0D      
    4F          1C0D0C      
    7F            0C0B      
    AF            0B0A      
    DF          1B0A09      
    0F02          0808      
    3F            0607      
7B01000054  01  1E0C0E      
        A9      1D0B0D      
                1C  0C      
                  0A0B      
                    0A      
                1B0909      
                    08      
                  0007      
ED056F0150  06  1E0E0E      
    EF  9F    381D  0D      
    6F02        1C0D0C      
    EF              0B      
    6F03          0C0A      
    EF          1B0B09      
      04          0008      
      00            07      
7B0100  47  01281E0C0E      
        8E      1D0B0D      
                1C  0C      
                  0A0B      
                    0A      
                1B0909      
                    08      
                  0007      
ED05EF  50  05  1E0E0E      
    1F019F      1D  0D      
    4F          1C0D0C      
    7F            0C0B      
    AF            0B0A      
    DF          1B0A09      
    0F02          0808      
    3F            0607      
7B01000054  01  1E0C0E      
        A9      1D0B0D      
                1C  0C      
                  0A0B      
                    0A      
                1B0909      
                    08      
                  0007      
77076F0177  06  1E0E0E3C    
    EF  EF    381D  0D      
    6F02        1C0D0C      
    EF              0B      
    6F03          0C0A      
    EF          1B0B09      
      04          0008      
      00            07      
DE0100      01281E0C06      
                1D0B0A      
                1C          
                  0A09      
=
                1B0908      
                    07      
                  0006      
7707EF  50  05  1E0E0E      
    1F019F      1D  0D      
    4F          1C0D0C      
    7F            0C0B      
    AF            0B0A      
    DF          1B0A09      
    0F02          0808      
    3F            0607      
DE01000054  01  1E0C0E      
        A9      1D0B0D      
                1C  0C      
                  0A0B      
                    0A      
                1B0909      
                    08      
                  0007      
77076F0150  06  1E0E0E      
    EF  9F    381D  0D      
    6F02        1C0D0C      
    EF              0B      
    6F03          0C0A      
    EF          1B0B09      
      04          0008      
      00            07      
DE0100  47  01281E0C0E      
        8E      1D0B0D      
                1C  0C      
                  0A0B      
                    0A      
                1B0909      
                    08      
                  0007      
7707EF  50  05  1E0E0E      
    1F019F      1D  0D      
    4F          1C0D0C      
    7F            0C0B      
    AF            0B0A      
    DF          1B0A09      
    0F02          0808      
    3F            0607      
DE01000054  01  1E0C0E      
        A9      1D0B0D      
                1C  0C      
                  0A0B      
                    0A      
                1B0909      
                    08      
                  0007      
A7066F016A  06  1E0E0E35    
    EF  D5    381D  0D      
    6F02        1C0D0C      
    EF              0B      
    6F03          0C0A      
    EF          1B0B09      
      04          0008      
      00            07      
AA0100      01281E0C06      
                1D0B0A      
                1C          
                  0A09      
=
                1B0908      
                    07      
                  0006      
A706EF  47  05  1E0E0E      
    1F018E      1D  0D      
    4F          1C0D0C      
    7F            0C0B      
    AF            0B0A      
    DF          1B0A09      
    0F02          0808      
    3F            0607      
AA01000050  01  1E0C0E      
        9F      1D0B0D      
                1C  0C      
                  0A0B      
                    0A      
                1B0909      
                    08      
                  0007      
A7066F0147  06  1E0E0E      
    EF  8E    381D  0D      
    6F02        1C0D0C      
    EF              0B      
    6F03          0C0A      
    EF          1B0B09      
      04          0008      
      00            07      
AA0100  3F  01281E0C0E      
        7F      1D0B0D      
                1C  0C      
                  0A0B      
                    0A      
                1B0909      
                    08      
                  0007      
A706EF  47  05  1E0E0E      
    1F018E      1D  0D      
    4F          1C0D0C      
    7F            0C0B      
    AF            0B0A      
    DF          1B0A09      
    0F02          0808      
    3F            0607      
AA01000050  01  1E0C0E      
        9F      1D0B0D      
                1C  0C      
                  0A0B      
                    0A      
                1B0909      
                    08      
                  0007      
ED056F015F  06  1E0E0E30    
    EF  BE    381D  0D      
    6F02        1C0D0C      
    EF              0B      
    6F03          0C0A      
    EF          1B0B09      
      04          0008      
      00            07      
7B0100      01281E0C06      
                1D0B0A      
                1C          
                  0A09      
=
[...]
                1C          
        7F        0A        
=
        81      1B09        
=
        7F        00        
ED05EF      05  1E0E        
    1F017D      1D          
    4F          1C0D        
    7F  7F        0C        
    AF            0B        
    DF  81      1B0A        
    0F02          08        
    3F  7F        06        
7B010000    01  1E0C        
        7D      1D0B        
                1C          
        7F        0A        
=
        81      1B09        
=
        7F        00        
ED056F01    06  1E0E        
    EF  7D    381D          
    6F02        1C0D        
    EF  7F                  
    6F03          0C        
    EF  81      1B0B        
      04          00        
      007F                  
7B0100      01281E0C        
        7D      1D0B        
                1C          
        7F        0A        
=
        81      1B09        
=
        7F        00        
ED05EF  77  05  1E0E0E      
    1F01        1D          
    4F          1C0D0D      
    7F            0C0C      
    AF            0B0B      
    DF  79      1B0A0A      
    0F02          08        
    3F  77        06        
7B0100008E  01  1E0C0E      
                1D0B        
                1C  0D      
                  0A0C      
                    0B      
        90      1B090A      
=
        8E        00        
77076F017F  06  1E0E0E3C    
    EF        381D          
    6F02        1C0D0D      
    EF              0C      
    6F03          0C0B      
    EF  81      1B0B0A      
      04          00        
      007F                  
DE0100  9F  01281E0C0E      
                1D0B        
                1C  0D      
                  0A0C      
                    0B      
        A1      1B090A      
=
        9F        00        
7707EF      05  1E0E        
    1F019D      1D          
    4F          1C0D        
    7F  9F        0C        
    AF            0B        
    DF  A1      1B0A        
    0F02          08        
    3F  9F        06        
DE010000BE  01  1E0C0E      
                1D0B        
                1C  0D      
                  0A0C      
                    0B      
        C0      1B090A      
=
        BE        00        
77076F01    06  1E0E        
    EF  BC    381D          
    6F02        1C0D        
    EF  BE                  
    6F03          0C        
    EF  C0      1B0B        
      04          00        
      00BE                  
DE0100      01281E0C        
        BC      1D0B        
                1C          
        BE        0A        
=
        C0      1B09        
=
        BE        00        
7707EF      05  1E0E        
    1F01BC      1D          
    4F          1C0D        
    7F  BE        0C        
    AF            0B        
    DF  C0      1B0A        
    0F02          08        
    3F  BE        06        
DE010000    01  1E0C        
        BC      1D0B        
                1C          
        BE        0A        
=
        C0      1B09        
=
        BE        00        
A7066F01D5  06  1E0E0E35    
    EF        381D          
    6F02        1C0D0D      
    EF              0C      
    6F03          0C0B      
    EF  D7      1B0B0A      
      04          00        
      00D5                  
AA0100      01281E0C        
        D3      1D0B        
                1C          
        D5        0A        
=
        D7      1B09        
=
        D5        00        
A706EF      05  1E0E        
    1F01D3      1D          
    4F          1C0D        
    7F  D5        0C        
    AF            0B        
    DF  D7      1B0A        
    0F02          08        
    3F  D5        06        
AA010000    01  1E0C        
        D3      1D0B        
                1C          
        D5        0A        
=
        D7      1B09        
=
        D5        00        
A7066F01    06  1E0E        
    EF  D3    381D          
    6F02        1C0D        
    EF  D5                  
    6F03          0C        
    EF  D7      1B0B        
      04          00        
      00D5                  
AA0100      01281E0C        
        D3      1D0B        
                1C          
        D5        0A        
=
        D7      1B09        
=
        D5        00        
A706EF  EF  05  1E0E0E      
    1F01        1D          
    4F          1C0D0D      
    7F            0C0C      
    AF            0B0B      
    DF  F1      1B0A0A      
    0F02          08        
    3F  EF        06        
AA010000FD  01  1E0C0E      
                1D0B        
                1C  0D      
                  0A0C      
                    0B      
        FF      1B090A      
=
        FD        00        
ED056F01    06  1E0E  30    
    EF  FB    381D          
    6F02        1C0D        
    EF  FD                  
    6F03          0C        
    EF  FF      1B0B        
      04          00        
      00FD                  
7B0100  9F  01281E0C0E      
                1D0B        
                1C  0D      
                  0A0C      
                    0B      
        A1      1B090A      
=
        9F        00        
ED05EF      05  1E0E        
    1F019D      1D          
    4F          1C0D        
    7F  9F        0C        
    AF            0B        
    DF  A1      1B0A        
    0F02          08        
    3F  9F        06        
7B010000    01  1E0C        
        9D      1D0B        
                1C          
        9F        0A        
=
        A1      1B09        
=
        9F        00        
ED056F01    06  1E0E        
    EF  9D    381D          
    6F02        1C0D        
    EF  9F                  
    6F03          0C        
    EF  A1      1B0B        
      04          00        
      009F                  
7B01        05281E0E        
    1F019D      1D          
    4F          1C0D        
    7F  9F        0C        
    AF            0B        
    DF  A1      1B0A        
    0F02          08        
    3F  9F        06        
ED05EF00        1E0E        
    1F019D      1D          
    4F          1C0D        
    7F  9F        0C        
    AF            0B        
    DF  A1      1B0A        
    0F02          08        
    3F  9F        06        
7B01EF00        1E0E        
    1F019D      1D          
    4F          1C0D        
    7F  9F        0C        
    EF00          0E        
    1F01A1      1B          
    4F            0D        
    7F  9F        0C        
ED056F  5F  06  1E0E0E      
    EF  BE    381D          
    6F02        1C0D0D      
    EF              0C      
    6F03          0C0B      
    EF  C0      1B0B0A      
      04          00        
      00BE                  
7B0100      01281E0C        
        BC      1D0B        
                1C          
        BE        0A        
=
        C0      1B09        
=
        BE        00        
ED05EF      05  1E0E        
    1F01BC      1D          
    4F          1C0D        
    7F  BE        0C        
    AF            0B        
    DF  C0      1B0A        
    0F02          08        
    3F  BE        06        
7B01000050  01  1E0C0E      
        9F      1D0B        
                1C  0D      
                  0A0C      
                    0B      
        A1      1B090A      
=
        9F        00        
FC046F01    06  1E0E  28    
    EF  9D    381D          
    6F02        1C0D        
    EF  9F                  
    6F03          0C        
    EF  A1      1B0B        
      04          00        
      009F                  
3F0100      01281E0C        
        9D      1D0B        
                1C          
        9F        0A        
=
        A1      1B09        
=
        9F        00        
FC04EF  3F  05  1E0E0E      
    1F017F      1D          
    4F          1C0D0D      
    7F            0C0C      
    AF            0B0B      
    DF  81      1B0A0A      
    0F02          08        
    3F  7F        06        
3F010000    01  1E0C        
        7D      1D0B        
                1C          
        7F        0A        
=
        81      1B09        
=
        7F        00        
70046F013C  06  1E0E0E24    
    EF  77    381D          
    6F02        1C0D0D      
    EF              0C      
    6F03          0C0B      
    EF  79      1B0B0A      
      04          00        
      0077                  
1C0100      01281E0C        
        75      1D0B        
                1C          
        77        0A        
=
        79      1B09        
=
        77        00        
7004EF      05  1E0E        
    1F0175      1D          
    4F          1C0D        
    7F  77        0C        
    AF            0B        
    DF  79      1B0A        
    0F02          08        
    3F  77        06        
1C01000047  01  1E0C0E      
        8E      1D0B        
                1C  0D      
                  0A0C      
                    0B      
        90      1B090A      
=
        8E        00        
31046F01    06  1E0E  22    
    EF  8C    381D          
    6F02        1C0D        
    EF  8E                  
    6F03          0C        
    EF  90      1B0B        
      04          00        
      008E                  
0C0100      01281E0C        
        8C      1D0B        
                1C          
        8E        0A        
=
        90      1B09        
=
        8E        00        
3104EF  6A  05  1E0E0E      
    1F01D5      1D          
    4F          1C0D0D      
    7F            0C0C      
    AF            0B0B      
    DF  D7      1B0A0A      
    0F02          08        
    3F  D5        06        
0C010000    01  1E0C        
        D3      1D0B        
                1C          
        D5        0A        
=
        D7      1B09        
=
        D5        00        
70046F015F  06  1E0E0E24    
    EF  BE    381D          
    6F02        1C0D0D      
    EF              0C      
    6F03          0C0B      
    EF  C0      1B0B0A      
      04          00        
      00BE                  
1C0100      01281E0C        
        BC      1D0B        
                1C          
        BE        0A        
=
        C0      1B09        
=
        BE        00        
7004EF      05  1E0E        
    1F01BC      1D          
    4F          1C0D        
    7F  BE        0C        
    AF            0B        
    DF  C0      1B0A        
    0F02          08        
    3F  BE        06        
1C010000    01  1E0C        
        BC      1D0B        
                1C          
        BE        0A        
=
        C0      1B09        
=
        BE        00        
70046F01    06  1E0E        
    EF  BC    381D          
    6F02        1C0D        
    EF  BE                  
    6F03          0C        
    EF  C0      1B0B        
      04          00        
      00BE                  
1C0100      01281E0C        
        BC      1D0B        
                1C          
        BE        0A        
=
        C0      1B09        
=
        BE        00        
7004EF      05  1E0E        
    1F01BC      1D          
    4F          1C0D        
    7F  BE        0C        
    AF            0B        
    DF  C0      1B0A        
    0F02          08        
    3F  BE        06        
1C010000    01  1E0C        
        BC      1D0B        
                1C          
        BE        0A        
=
        C0      1B09        
=
        BE        00        
FC046F016A  06  1E0E0E28    
    EF  D5    381D          
    6F02        1C0D0D      
    EF              0C      
    6F03          0C0B      
    EF  D7      1B0B0A      
      04          00        
      00D5                  
3F0100      01281E0C        
        D3      1D0B        
                1C          
        D5        0A        
=
        D7      1B09        
=
        D5        00        
FC04EF      05  1E0E        
    1F01D3      1D          
    4F          1C0D        
    7F  D5        0C        
    AF            0B        
    DF  D7      1B0A        
    0F02          08        
    3F  D5        06        
3F010000    01  1E0C        
        D3      1D0B        
                1C          
        D5        0A        
=
        D7      1B09        
=
        D5        00        
FC046F01    06  1E0E        
    EF  D3    381D          
    6F02        1C0D        
    EF  D5                  
    6F03          0C        
    EF  D7      1B0B        
      04          00        
      00D5                  
3F01        05281E0E        
    1F01D3      1D          
    4F          1C0D        
    7F  D5        0C        
    AF            0B        
    DF  D7      1B0A        
    0F02          08        
    3F  D5        06        
FC04EF00        1E0E        
    1F01D3      1D          
    4F          1C0D        
    7F  D5        0C        
    AF            0B        
    DF  D7      1B0A        
    0F02          08        
    3F  D5        06        
3F01EF00        1E0E        
    1F01D3      1D          
    4F          1C0D        
    7F  D5        0C        
    EF00          0E        
    1F01D7      1B          
    4F            0D        
    7F  D5        0C        
ED056F  5F  06  1E0E0E30    
    EF  BE    381D          
    6F02        1C0D0D      
    EF              0C      
    6F03          0C0B      
    EF  C0      1B0B0A      
      04          00        
      00BE                  
7B0100      01281E0C        
        BC      1D0B        
                1C          
        BE        0A        
=
        C0      1B09        
=
        BE        00        
ED05EF      05  1E0E        
    1F01BC      1D          
    4F          1C0D        
    7F  BE        0C        
    AF            0B        
    DF  C0      1B0A        
    0F02          08        
    3F  BE        06        
7B01000050  01  1E0C0E      
        9F      1D0B        
                1C  0D      
                  0A0C      
                    0B      
        A1      1B090A      
=
        9F        00        
FC046F01    06  1E0E  28    
    EF  9D    381D          
    6F02        1C0D        
    EF  9F                  
    6F03          0C        
    EF  A1      1B0B        
      04          00        
      009F                  
3F0100      01281E0C        
        9D      1D0B        
                1C          
        9F        0A        
=
        A1      1B09        
=
        9F        00        
FC04EF  3F  05  1E0E0E      
    1F017F      1D          
    4F          1C0D0D      
    7F            0C0C      
    AF            0B0B      
    DF  81      1B0A0A      
    0F02          08        
    3F  7F        06        
3F010000    01  1E0C        
        7D      1D0B        
                1C          
        7F        0A        
=
        81      1B09        
=
        7F        00        
70046F013C  06  1E0E0E24    
    EF  77    381D          
    6F02        1C0D0D      
    EF              0C      
    6F03          0C0B      
    EF  79      1B0B0A      
      04          00        
      0077                  
1C0100      01281E0C        
        75      1D0B        
                1C          
        77        0A        
=
        79      1B09        
=
        77        00        
7004EF      05  1E0E        
    1F0175      1D          
    4F          1C0D        
    7F  77        0C        
    AF            0B        
    DF  79      1B0A        
    0F02          08        
    3F  77        06        
1C01000047  01  1E0C0E      
        8E      1D0B        
                1C  0D      
                  0A0C      
                    0B      
        90      1B090A      
=
        8E        00        
31046F01    06  1E0E  22    
    EF  8C    381D          
    6F02        1C0D        
    EF  8E                  
    6F03          0C        
    EF  90      1B0B        
      04          00        
      008E                  
0C0100      01281E0C        
        8C      1D0B        
                1C          
        8E        0A        
=
        90      1B09        
=
        8E        00        
3104EF  6A  05  1E0E0E      
    1F01D5      1D          
    4F          1C0D0D      
    7F            0C0C      
    AF            0B0B      
    DF  D7      1B0A0A      
    0F02          08        
    3F  D5        06        
0C010000    01  1E0C        
        D3      1D0B        
                1C          
        D5        0A        
=
        D7      1B09        
=
        D5        00        
70046F015F  06  1E0E0E24    
    EF  BE    381D          
    6F02        1C0D0D      
    EF              0C      
    6F03          0C0B      
    EF  C0      1B0B0A      
      04          00        
      00BE                  
1C0100      01281E0C        
        BC      1D0B        
                1C          
        BE        0A        
=
        C0      1B09        
=
        BE        00        
7004EF      05  1E0E        
    1F01BC      1D          
    4F          1C0D        
    7F  BE        0C        
    AF            0B        
    DF  C0      1B0A        
    0F02          08        
    3F  BE        06        
1C010000    01  1E0C        
        BC      1D0B        
                1C          
        BE        0A        
=
        C0      1B09        
=
        BE        00        
70046F01    06  1E0E        
    EF  BC    381D          
    6F02        1C0D        
    EF  BE                  
    6F03          0C        
    EF  C0      1B0B        
      04          00        
      00BE                  
1C0100      01281E0C        
        BC      1D0B        
                1C          
        BE        0A        
=
        C0      1B09        
=
        BE        00        
7004EF      05  1E0E        
    1F01BC      1D          
    4F          1C0D        
    7F  BE        0C        
    AF            0B        
    DF  C0      1B0A        
    0F02          08        
    3F  BE        06        
1C010000    01  1E0C        
        BC      1D0B        
                1C          
        BE        0A        
=
        C0      1B09        
=
        BE        00        
FC046F016A  06  1E0E0E28    
    EF  D5    381D          
    6F02        1C0D0D      
    EF              0C      
    6F03          0C0B      
    EF  D7      1B0B0A      
      04          00        
      00D5                  
3F0100      01281E0C        
        D3      1D0B        
                1C          
        D5        0A        
=
        D7      1B09        
=
        D5        00        
FC04EF      05  1E0E        
    1F01D3      1D          
    4F          1C0D        
    7F  D5        0C        
    AF            0B        
    DF  D7      1B0A        
    0F02          08        
    3F  D5        06        
3F010000    01  1E0C        
        D3      1D0B        
                1C          
        D5        0A        
=
        D7      1B09        
=
        D5        00        
FC046F01    06  1E0E        
    EF  D3    381D          
    6F02        1C0D        
    EF  D5                  
    6F03          0C        
    EF  D7      1B0B        
      04          00        
      00D5                  
3F01        05281E0E        
    1F01D3      1D          
    4F          1C0D        
    7F  D5        0C        
    AF            0B        
    DF  D7      1B0A        
    0F02          08        
    3F  D5        06        
FC04EF00        1E0E        
    1F01D3      1D          
    4F          1C0D        
    7F  D5        0C        
    AF            0B        
    DF  D7      1B0A        
    0F02          08        
    3F  D5        06        
3F01EF00        1E0E        
    1F01D3      1D          
    4F          1C0D        
    7F  D5        0C        
    EF00          0E        
    1F01D7      1B          
    4F            0D        
    7F  D5        0C        
ED056F  BE  06  1E0E0E30  08
