000102030405060708090a0b0c0d
5E007D01E70500F8090C03      
    7C  E8      080B        
    7B  E9      070A        
    7A  EA      06          
    79  EB        0904      
    7D  EC                  
    7C  ED      05          
    7B  EE                  
    7A  EF        0805      
    79  F0                  
    7D  EF      04          
    7C  EE                  
    7B  ED          06      
    7A  EC                  
    79  EB      00          
    7D  EA                  
    C100E9        0C07      
    C0  E8        0B        
    BF  E7        0A        
    BE  E6                  
    BD  E7        0908      
    C1  E8                  
    C0  E9                  
    BF  EA                  
    BE  EB        0809      
    BD  EC                  
    C1  ED                  
    C0  EE                  
    BF  EF          0A      
    BE  F0                  
    BD  EF                  
    C1  EE                  
    1F01ED      090C0B      
    1E  EC      080B        
    1D  EB      070A0A      
    1C  EA      06          
    1B  E9        0909      
    1F  E8                  
    1E  E7      05  08      
    1D  E6                  
    1C  E7        080B      
    1B  E8                  
    1F  E9      04  0A      
    1E  EA                  
    1D  EB          09      
    1C  EC                  
    1B  ED      00  08      
    1F  EE                  
    7D  EF      090C0B      
    7C  F0      080B        
    7B  EF      070A0A      
    7A  EE      06          
    79  ED        0909      
    7D  EC                  
    7C  EB      05  08      
    7B  EA                  
    7A  E9        080B      
    79  E8                  
    7D  E7      04  0A      
    7C  E6                  
    7B  E7          09      
    7A  E8                  
    79  E9      00  08      
    7D  EA                  
3F  41  A006    090C0B      
    40  A1      080B        
    3F  A2      070A0A      
    3E  A3      06          
    3D  A4        0909      
    41  A5                  
    40  A6      05  08      
    3F  A7                  
    3E  A8      09080B      
    3D  A9      08          
    41  A8      07  0A      
    40  A7      06          
    3F  A6          09      
    3E  A5                  
    3D  A4      05  08      
    41  A3                  
    54  A2        0C0B      
    53  A1        0B        
    52  A0      040A0A      
    51  9F                  
    50  A0        0909      
    54  A1                  
    53  A2      00  08      
    52  A3                  
    AC  A4        0C0B      
    AB  A5        0B        
    AA  A6        0A0A      
    A9  A7                  
    A8  A8        0909      
    AC  A9                  
    AB  A8          08      
    AA  A7                  
    A9  A6        080B      
    A8  A5                  
    AC  A4          0A      
    AB  A3                  
    AA  A2          09      
    A9  A1                  
    A8  A0          08      
    AC  9F                  
    AB  A0          0B      
    AA  A1                  
    A9  A2          0A      
    A8  A3                  
    AC  A4          09      
    AB  A5                  
    AA  A6          08      
    A9  A7                  
    A8  A8          0B      
    AC  A9                  
    AB  A8          0A      
    AA  A7                  
    A9  A6          09      
    A8  A5                  
    AC  A4          08      
    AB  A3                  
    AA  A2          0B      
    A9  A1                  
    A8  A0          0A      
    AC  9F                  
    AB  A0          09      
    AA  A1                  
    A9  A2          08      
    A8  A3                  
47  3A02D808    090C0B      
    39  D9      080B        
    38  DA      070A0A      
    37  DB      06          
    36  DC        0909      
    3A  DD                  
    39  DE      05  08      
    38  DF                  
    37  E0        080B      
    36  E1                  
    3A  E0      04  0A      
    39  DF                  
    38  DE          09      
    37  DD                  
    36  DC      00  08      
    3A  DB                  
    7D01DA        0C0B      
    7C  D9        0B        
    7B  D8        0A0A      
    7A  D7                  
    79  D8        0909      
    7D  D9                  
    7C  DA          08      
    7B  DB                  
    7A  DC        080B      
    79  DD                  
    7D  DE          0A      
    7C  DF                  
    7B  E0          09      
    7A  E1                  
    79  E0          08      
    7D  DF                  
    1F  DE      090C0B      
    1E  DD      080B        
    1D  DC      070A0A      
    1C  DB      06          
    1B  DA        0909      
    1F  D9                  
    1E  D8      05  08      
    1D  D7                  
    1C  D8        080B      
    1B  D9                  
    1F  DA      04  0A      
    1E  DB                  
    1D  DC          09      
    1C  DD                  
    1B  DE      00  08      
    1F  DF                  
    7D  E0      090C0B      
    7C  E1      080B        
    7B  E0      070A0A      
    7A  DF      06          
    79  DE        0909      
    7D  DD                  
    7C  DC      05  08      
    7B  DB                  
    7A  DA        080B      
    79  D9                  
    7D  D8      04  0A      
    7C  D7                  
    7B  D8          09      
    7A  D9                  
    79  DA      00  08      
    7D  DB                  
5E  94  E107    090C0B      
    93  E2      080B        
    92  E3      070A0A      
    91  E4      06          
    90  E5        0909      
    94  E6                  
    93  E7      05  08      
    92  E8                  
    91  E9        080B      
    90  EA                  
    94  E9      04  0A      
    93  E8                  
    92  E7          09      
    91  E6                  
    90  E5      00  08      
    94  E4                  
    7D  E3        0C0B      
    7C  E2        0B        
    7B  E1        0A0A      
    7A  E0                  
    79  E1        0909      
    7D  E2                  
    7C  E3          08      
    7B  E4                  
    54  E5        0C0B      
    53  E6        0B        
    52  E7        0A0A      
    51  E8                  
    50  E9        0909      
    54  EA                  
    53  E9          08      
    52  E8                  
    51  E7        080B      
    50  E6                  
    54  E5          0A      
    53  E4                  
    52  E3          09      
    51  E2                  
    50  E1          08      
    54  E0                  
    53  E1          0B      
    52  E2                  
    51  E3          0A      
    50  E4                  
    54  E5          09      
    53  E6                  
    52  E7          08      
    51  E8                  
    50  E9          0B      
    54  EA                  
    53  E9          0A      
    52  E8                  
    51  E7          09      
    50  E6                  
    54  E5          08      
    53  E4                  
    52  E3          0B      
    51  E2                  
    50  E1          0A      
    54  E0                  
    53  E1          09      
    52  E2                  
    51  E3          08      
    50  E4                  
3F  1F  E705    090C0B      
    1E  E8      080B        
    1D  E9      070A0A      
    1C  EA      06          
    1B  EB        0909      
    1F  EC                  
    1E  ED      05  08      
    1D  EE                  
    1C  EF        080B      
    1B  F0                  
    1F  EF      04  0A      
    1E  EE                  
    1D  ED          09      
    1C  EC                  
    1B  EB      00  08      
    1F  EA                  
    30  E9        0C0B      
    2F  E8        0B        
    2E  E7        0A0A      
    2D  E6                  
    2C  E7        0909      
    30  E8                  
    2F  E9          08      
    2E  EA                  
    2D  EB        080B      
    2C  EC                  
    30  ED          0A      
    2F  EE                  
    2E  EF          09      
    2D  F0                  
    2C  EF          08      
    30  EE                  
    7D  ED      090C0B      
    7C  EC      080B        
    7B  EB      070A0A      
    7A  EA      06          
    79  E9        0909      
    7D  E8                  
    7C  E7      05  08      
    7B  E6                  
    7A  E7        080B      
    79  E8                  
    7D  E9      04  0A      
    7C  EA                  
    7B  EB          09      
    7A  EC                  
    79  ED      00  08      
    7D  EE                  
    FC  EF      090C0B      
    FB  F0      080B        
    FA  EF      070A0A      
    F9  EE      06          
    F8  ED        0909      
    FC  EC                  
    FB  EB      05  08      
    FA  EA                  
    F9  E9        080B      
    F8  E8                  
    FC  E7      04  0A      
    FB  E6                  
    FA  E7          09      
    F9  E8                  
    F8  E9      00  08      
    FC  EA                  
47  41  A006    090C0B      
    40  A1      080B        
    3F  A2      070A0A      
    3E  A3      06          
    3D  A4        0909      
    41  A5                  
    40  A6      05  08      
    3F  A7                  
    3E  A8      09080B      
    3D  A9      08          
    41  A8      07  0A      
    40  A7      06          
    3F  A6          09      
    3E  A5                  
    3D  A4      05  08      
    41  A3                  
    54  A2        0C0B      
    53  A1        0B        
    52  A0      040A0A      
    51  9F                  
    50  A0        0909      
    54  A1                  
    53  A2      00  08      
    52  A3                  
    AC  A4        0C0B      
    AB  A5        0B        
    AA  A6        0A0A      
    A9  A7                  
    A8  A8        0909      
    AC  A9                  
    AB  A8          08      
    AA  A7                  
    A9  A6        080B      
    A8  A5                  
    AC  A4          0A      
    AB  A3                  
    AA  A2          09      
    A9  A1                  
    A8  A0          08      
    AC  9F                  
    AB  A0          0B      
    AA  A1                  
    A9  A2          0A      
    A8  A3                  
    AC  A4          09      
    AB  A5                  
    AA  A6          08      
    A9  A7                  
    A8  A8          0B      
    AC  A9                  
    AB  A8          0A      
    AA  A7                  
    A9  A6          09      
    A8  A5                  
    AC  A4          08      
    AB  A3                  
    AA  A2          0B      
    A9  A1                  
    A8  A0          0A      
    AC  9F                  
    AB  A0          09      
    AA  A1                  
    A9  A2          08      
    A8  A3                  
00  7D  D808      0C0B      
    7C  D9        0B        
    7B  DA        0A0A      
    7A  DB                  
    79  DC        0909      
    7D  DD                  
    7C  DE          08      
    7B  DF                  
    7A  E0        080B      
    79  E1                  
    7D  E0          0A      
    7C  DF                  
    7B  DE          09      
    7A  DD                  
    79  DC          08      
    7D  DB                  
5E  C100DA      090C0B      
    C0  D9      080B        
    BF  D8      070A0A      
    BE  D7      06          
    BD  D8        0909      
    C1  D9                  
    C0  DA      05  08      
    BF  DB                  
    BE  DC        080B      
    BD  DD                  
    C1  DE      04  0A      
    C0  DF                  
    BF  E0          09      
    BE  E1                  
    BD  E0      00  08      
    C1  DF                  
    1F01DE      090C0B      
    1E  DD      080B        
    1D  DC      070A0A      
    1C  DB      06          
    1B  DA        0909      
    1F  D9                  
    1E  D8      05  08      
    1D  D7                  
    1C  D8        080B      
    1B  D9                  
    1F  DA      04  0A      
    1E  DB                  
    1D  DC          09      
    1C  DD                  
    1B  DE      00  08      
    1F  DF                  
    1E  E0      09  0B      
    1D  E1      08          
    1C  E0      07  0A      
    1B  DF      06          
    1F  DE          09      
    1E  DD                  
    1D  DC      05  08      
    1C  DB                  
    7D  DA        0C0B      
    7C  D9        0B        
    7B  D8      040A0A      
    7A  D7                  
    79  D8        0909      
    7D  D9                  
    7C  DA      00  08      
    7B  DB                  
54  94  E107    090C0B      
    93  E2      080B        
    92  E3      070A0A      
    91  E4      06          
    90  E5        0909      
    94  E6                  
    93  E7      05  08      
    92  E8                  
    91  E9        080B      
    90  EA                  
    94  E9      04  0A      
    93  E8                  
    92  E7          09      
    91  E6                  
    90  E5      00  08      
    94  E4                  
    7D  E3        0C0B      
    7C  E2        0B        
    7B  E1        0A0A      
    7A  E0                  
    79  E1        0909      
    7D  E2                  
    7C  E3          08      
    7B  E4                  
    54  E5        0C0B      
    53  E6        0B        
    52  E7        0A0A      
    51  E8                  
    50  E9        0909      
    54  EA                  
    53  E9          08      
    52  E8                  
    51  E7        080B      
    50  E6                  
    54  E5          0A      
    53  E4                  
    52  E3          09      
    51  E2                  
    50  E1          08      
    54  E0                  
    00  E1        0C0B      
    FF00E2        0B        
    FE  E3        0A0A      
    FD  E4                  
    FC  E5        0909      
    0001E6                  
    FF00E7          08      
    FE  E8                  
    FD  E9        080B      
    FC  EA                  
    0001E9          0A      
    FF00E8                  
    FE  E7          09      
    FD  E6                  
    FC  E5          08      
    0001E4                  
    FF00E3          0B      
    FE  E2                  
    FD  E1          0A      
    FC  E0                  
    0001E1          09      
    FF00E2                  
    FE  E3          08      
    FD  E4                  
    7E  E705    090C0B      
        E8      080B        
    3F  E9      070A0A      
        EA      06          
        EB        0909      
    7E  EC                  
        ED      05  08      
        EE                  
    3F  EF        080B      
        F0                  
        EF      04  0A      
    7E  EE                  
        ED          09      
        EC                  
    3F  EB      00  08      
        EA                  
    7E  E9      090C0B      
        E8      080B        
    3F  E7      070A0A      
        E6      06          
        E7        0909      
    7E  E8                  
        E9      05  08      
        EA                  
    3F  EB        080B      
        EC                  
        ED      04  0A      
    7E  EE                  
        EF          09      
        F0                  
    3F  EF      00  08      
        EE                  
    7E  ED      090C0B      
        EC      080B        
    3F  EB      070A0A      
        EA      06          
        E9        0909      
    7E  E8                  
        E7      05  08      
        E6                  
        E7      090C0B      
        E8      080B        
    3F  E9      070A0A      
        EA      06          
        EB        0909      
    7E  EC                  
        ED      05  08      
        EE                  
    3F  EF        080B      
        F0                  
        EF      04  0A      
    7E  EE                  
        ED          09      
        EC                  
    3F  EB      00  08      
        EA                  
        E9          0B      
    7E  E8                  
        E7          0A      
        E6                  
    3F  E7          09      
        E8                  
        E9          08      
    7E  EA                  
5E  8D  A006    090C0B      
        A1      080B        
    46  A2      070A0A      
        A3      06          
        A4        0909      
    8C  A5                  
        A6      05  08      
        A7                  
    46  A8        080B      
        A9                  
        A8      04  0A      
    8C  A7                  
        A6          09      
        A5                  
    46  A4      00  08      
        A3                  
    8D  A2      090C0B      
        A1      080B        
    46  A0      070A0A      
        9F      06          
        A0        0909      
    8C  A1                  
        A2      05  08      
        A3                  
    8D  A4      090C0B      
        A5      080B        
    46  A6      070A0A      
        A7      06          
        A8        0909      
    8C  A9                  
        A8      05  08      
        A7                  
    46  A6        080B      
        A5                  
        A4      04  0A      
    8C  A3                  
        A2          09      
        A1                  
    46  A0      00  08      
        9F                  
        A0          0B      
    8C  A1                  
        A2          0A      
        A3                  
    46  A4          09      
        A5                  
        A6          08      
    8C  A7                  
        A8          0B      
        A9                  
    46  A8          0A      
        A7                  
        A6          09      
    8C  A5                  
        A4          08      
        A3                  
    46  A2          0B      
        A1                  
        A0          0A      
    8C  9F                  
        A0          09      
        A1                  
    46  A2          08      
        A3                  
FC  7901D808    090C0B      
        D9      080B        
    BC00DA      070A0A      
        DB      06          
        DC        0909      
    7801DD                  
        DE      05  08      
        DF                  
    BC00E0        080B      
        E1                  
        E0      04  0A      
    7801DF                  
        DE          09      
        DD                  
    BC00DC      00  08      
        DB                  
    7901DA      090C0B      
        D9      080B        
    BC00D8      070A0A      
        D7      06          
        D8        0909      
    7801D9                  
        DA      05  08      
        DB                  
    BC00DC        080B      
        DD                  
        DE      04  0A      
    7801DF                  
        E0          09      
        E1                  
    BC00E0      00  08      
        DF                  
    7901DE      090C0B      
        DD      080B        
    BC00DC      070A0A      
        DB      06          
        DA        0909      
    7801D9                  
        D8      05  08      
        D7                  
    79  D8      090C0B      
        D9      080B        
    BC00DA      070A0A      
        DB      06          
        DC        0909      
    7801DD                  
        DE      05  08      
        DF                  
    BC00E0        080B      
        E1                  
        E0      04  0A      
    7801DF                  
        DE          09      
        DD                  
    BC00DC      00  08      
        DB                  
        DA          0B      
    7801D9                  
        D8          0A      
        D7                  
    BC00D8          09      
        D9                  
        DA          08      
    7801DB                  
    79  E107    090C0B      
        E2      080B        
    BC00E3      070A0A      
        E4      06          
        E5        0909      
    7801E6                  
        E7      05  08      
        E8                  
    BC00E9        080B      
        EA                  
        E9      04  0A      
    7801E8                  
        E7          09      
        E6                  
    BC00E5      00  08      
        E4                  
    7901E3      090C0B      
        E2      080B        
    BC00E1      070A0A      
        E0      06          
        E1        0909      
    7801E2                  
        E3      05  08      
        E4                  
    79  E5      090C0B      
        E6      080B        
    BC00E7      070A0A      
        E8      06          
        E9        0909      
    7801EA                  
        E9      05  08      
        E8                  
    BC00E7        080B      
        E6                  
        E5      04  0A      
    7801E4                  
        E3          09      
        E2                  
    BC00E1      00  08      
        E0                  
        E1          0B      
    7801E2                  
        E3          0A      
        E4                  
    BC00E5          09      
        E6                  
        E7          08      
    7801E8                  
        E9          0B      
        EA                  
    BC00E9          0A      
        E8                  
        E7          09      
    7801E6                  
        E5          08      
        E4                  
    BC00E3          0B      
        E2                  
        E1          0A      
    7801E0                  
        E1          09      
        E2                  
    BC00E3          08      
        E4                  
3F  1F01E705    090C0B      
    1E  E8      080B        
    1D  E9      070A0A      
    1C  EA      06          
    1B  EB        0909      
    1F  EC                  
    1E  ED      05  08      
    1D  EE                  
    1C  EF        080B      
    1B  F0                  
    1F  EF      04  0A      
    1E  EE                  
    1D  ED          09      
    1C  EC                  
    1B  EB      00  08      
    1F  EA                  
5E  30  E9      090C0B      
    2F  E8      080B        
    2E  E7      070A0A      
    2D  E6      06          
    2C  E7        0909      
    30  E8                  
    2F  E9      05  08      
    2E  EA                  
    2D  EB        080B      
    2C  EC                  
    30  ED      04  0A      
    2F  EE                  
    2E  EF          09      
    2D  F0                  
    2C  EF      00  08      
    30  EE                  
47  7D  ED      090C0B      
    7C  EC      080B        
    7B  EB      070A0A      
    7A  EA      06          
    79  E9        0909      
    7D  E8                  
    7C  E7      05  08      
    7B  E6                  
3F  7A  E7      09080B      
    79  E8      08          
    7D  E9      07  0A      
    7C  EA      06          
    7B  EB          09      
    7A  EC                  
    79  ED      05  08      
    7D  EE                  
47  FC  EF      090C0B      
    FB  F0      080B        
    FA  EF      070A0A      
    F9  EE      06          
    F8  ED        0909      
    FC  EC                  
    FB  EB      05  08      
    FA  EA                  
    F9  E9        080B      
    F8  E8                  
    FC  E7      04  0A      
    FB  E6                  
    FA  E7          09      
    F9  E8                  
    F8  E9      00  08      
    FC  EA                  
4F  41  A006    090C0B      
    40  A1      080B        
    3F  A2      070A0A      
    3E  A3      06          
    3D  A4        0909      
    41  A5                  
    40  A6      05  08      
    3F  A7                  
    3E  A8      09080B      
    3D  A9      08          
    41  A8      07  0A      
    40  A7      06          
    3F  A6          09      
    3E  A5                  
    3D  A4      05  08      
    41  A3                  
    54  A2        0C0B      
    53  A1        0B        
    52  A0      040A0A      
    51  9F                  
    50  A0        0909      
    54  A1                  
    53  A2      00  08      
    52  A3                  
6A  AC  A4      090C0B      
    AB  A5      080B        
    AA  A6      070A0A      
    A9  A7      06          
    A8  A8        0909      
    AC  A9                  
    AB  A8      05  08      
    AA  A7                  
    A9  A6        080B      
    A8  A5                  
    AC  A4      04  0A      
    AB  A3                  
    AA  A2          09      
    A9  A1                  
    A8  A0      00  08      
    AC  9F                  
    AB  A0          0B      
    AA  A1                  
    A9  A2          0A      
    A8  A3                  
    AC  A4          09      
    AB  A5                  
    AA  A6          08      
    A9  A7                  
    A8  A8          0B      
    AC  A9                  
    AB  A8          0A      
    AA  A7                  
    A9  A6          09      
    A8  A5                  
    AC  A4          08      
    AB  A3                  
    AA  A2          0B      
    A9  A1                  
    A8  A0          0A      
    AC  9F                  
    AB  A0          09      
    AA  A1                  
    A9  A2          08      
    A8  A3                  
00  C100D808      0C0B      
    C0  D9        0B        
    BF  DA        0A0A      
    BE  DB                  
    BD  DC        0909      
    C1  DD                  
    C0  DE          08      
    BF  DF                  
    BE  E0        080B      
    BD  E1                  
    C1  E0          0A      
    C0  DF                  
    BF  DE          09      
    BE  DD                  
    BD  DC          08      
    C1  DB                  
5E  D8  DA      090C0B      
    D7  D9      080B        
    D6  D8      070A0A      
    D5  D7      06          
    D4  D8        0909      
    D8  D9                  
    D7  DA      05  08      
    D6  DB                  
    D5  DC        080B      
    D4  DD                  
    D8  DE      04  0A      
    D7  DF                  
    D6  E0          09      
    D5  E1                  
    D4  E0      00  08      
    D8  DF                  
    E4  DE      090C0B      
    E3  DD      080B        
    E2  DC      070A0A      
    E1  DB      06          
    E0  DA        0909      
    E4  D9                  
    E3  D8      05  08      
    E2  D7                  
    E1  D8        080B      
    E0  D9                  
    E4  DA      04  0A      
    E3  DB                  
    E2  DC          09      
    E1  DD                  
    E0  DE      00  08      
    E4  DF                  
47  1F01E0      090C0B      
    1E  E1      080B        
    1D  E0      070A0A      
    1C  DF      06          
    1B  DE        0909      
    1F  DD                  
    1E  DC      05  08      
    1D  DB                  
    1C  DA        080B      
    1B  D9                  
    1F  D8      04  0A      
    1E  D7                  
    1D  D8          09      
    1C  D9                  
    1B  DA      00  08      
    1F  DB                  
3F  79  E107    090C0B      
        E2      080B        
    BC00E3      070A0A      
        E4      06          
        E5        0909      
    7801E6                  
        E7      05  08      
        E8                  
    BC00E9      09080B      
        EA      08          
        E9      07  0A      
    7801E8      06          
        E7          09      
        E6                  
    BC00E5      05  08      
        E4                  
    7901E3        0C0B      
        E2        0B        
    BC00E1      040A0A      
        E0                  
        E1        0909      
    7801E2                  
        E3      00  08      
        E4                  
    90  E5      090C0B      
        E6      080B        
    C800E7      070A0A      
        E8      06          
        E9        0909      
    9001EA                  
        E9      05  08      
        E8                  
    C800E7        080B      
        E6                  
        E5      04  0A      
    9001E4                  
        E3          09      
        E2                  
    C800E1      00  08      
        E0                  
        E1          0B      
    9001E2                  
        E3          0A      
        E4                  
    C800E5          09      
        E6                  
        E7          08      
    9001E8                  
        E9          0B      
        EA                  
    C800E9          0A      
        E8                  
        E7          09      
    9001E6                  
        E5          08      
        E4                  
    C800E3          0B      
        E2                  
        E1          0A      
    9001E0                  
        E1          09      
        E2                  
    C800E3          08      
        E4                  
79010001E705    080C0C      
2C  FF00E8        0B        
FC00FE  E9        0A0B      
7901FD  EA                  
2C  FC  EB        09        
FC000001EC                  
7901FF00ED                  
2C  FE  EE                  
FC00FD  EF      0708        
7901FC  F0                  
2C  0001EF          0A      
FC00FF00EE                  
7901FE  ED                  
2C  FD  EC                  
FC00FC  EB                  
79010001EA                  
2C  30  E9        0C        
FC002F  E8        0B        
79012E  E7        0A09      
2C  2D  E6                  
FC002C  E7        09        
790130  E8                  
2C  2F  E9                  
FC002E  EA                  
79012D  EB      0608        
2C  2C  EC                  
FC0030  ED          08      
79012F  EE                  
2C  2E  EF                  
FC002D  F0                  
79012C  EF                  
2C  30  EE                  
FC007D  ED        0C        
79017C  EC        0B        
2C  7B  EB        0A07      
FC007A  EA                  
790179  E9        09        
2C  7D  E8                  
FC007C  E7                  
79017B  E6                  
2C  7A  E7      0008        
FC0079  E8                  
79017D  E9                  
2C  7C  EA                  
FC007B  EB                  
79017A  EC                  
2C  79  ED                  
FC007D  EE                  
7901FC  EF        0C        
2C  FB  F0        0B        
FC00FA  EF        0A06      
7901F9  EE                  
2C  F8  ED        09        
FC00FC  EC                  
7901FB  EB                  
2C  FA  EA                  
FC00F9  E9        08        
7901F8  E8                  
2C  FC  E7                  
FC00FB  E6                  
7901FA  E7                  
2C  F9  E8                  
FC00F8  E9                  
7901FC  EA                  
A8  54  A006    080C0C      
50  53  A1        0B        
1B  52  A2        0A0B      
A8  51  A3                  
50  50  A4        09        
1B  54  A5                  
A8  53  A6                  
50  52  A7                  
1B  51  A8      0708        
A8  50  A9                  
50  54  A8          0A      
1B  53  A7                  
A8  52  A6                  
50  51  A5                  
1B  50  A4                  
A8  54  A3                  
50  7D  A2        0C        
1B  7C  A1        0B        
A8  7B  A0        0A09      
50  7A  9F                  
1B  79  A0        09        
A8  7D  A1                  
50  7C  A2                  
1B  7B  A3                  
A8  7A  A4      0608        
50  79  A5                  
1B  7D  A6          08      
A8  7C  A7                  
50  7B  A8                  
1B  7A  A9                  
A8  79  A8                  
50  7D  A7                  
1B  AC  A6        0C        
A8  AB  A5        0B        
50  AA  A4        0A07      
1B  A9  A3                  
A8  A8  A2        09        
50  AC  A1                  
1B  AB  A0                  
A8  AA  9F                  
50  A9  A0      0008        
1B  A8  A1                  
A8  AC  A2                  
50  AB  A3                  
1B  AA  A4                  
A8  A9  A5                  
50  A8  A6                  
1B  AC  A7                  
A8  AB  A8                  
50  AA  A9                  
1B  A9  A8          06      
A8  A8  A7                  
50  AC  A6                  
1B  AB  A5                  
A8  AA  A4                  
50  A9  A3                  
1B  3A02A2        0C        
A8  39  A1        0B        
50  38  A0        0A        
1B  37  9F                  
A8  36  A0        09        
50  3A  A1                  
1B  39  A2                  
A8  38  A3                  
36027D01D808    080C0C      
C1017C  D9        0B        
79  7B  DA        0A0B      
36027A  DB                  
C10179  DC        09        
79  7D  DD                  
36027C  DE                  
C1017B  DF                  
79  7A  E0      0708        
360279  E1                  
C1017D  E0          0A      
79  7C  DF                  
36027B  DE                  
C1017A  DD                  
79  79  DC                  
36027D  DB                  
C101AC  DA        0C        
79  AB  D9        0B        
3602AA  D8        0A09      
C101A9  D7                  
79  A8  D8        09        
3602AC  D9                  
C101AB  DA                  
79  AA  DB                  
3602A9  DC      0608        
C101A8  DD                  
79  AC  DE          08      
3602AB  DF                  
C101AA  E0                  
79  A9  E1                  
3602A8  E0                  
C101AC  DF                  
79  C5  DE        0C        
3602C4  DD        0B        
C101C3  DC        0A07      
79  C2  DB                  
3602C1  DA        09        
C101C5  D9                  
79  C4  D8                  
3602C3  D7                  
C101C2  D8      0008        
79  C1  D9                  
3602C5  DA                  
C101C4  DB                  
79  C3  DC                  
3602C2  DD                  
C101C1  DE                  
79  C5  DF                  
36023A02E0        0C        
C10139  E1        0B        
79  38  E0        0A06      
360237  DF                  
C10136  DE        09        
79  3A  DD                  
360239  DC                  
C10138  DB                  
79  37  DA        08        
360236  D9                  
C1013A  D8                  
79  39  D7                  
360238  D8                  
C10137  D9                  
79  36  DA                  
36023A  DB                  
F801FC01E107    080C0C      
90  FB  E2        0B        
50  FA  E3        0A0B      
F8  F9  E4                  
90  F8  E5        09        
50  FC  E6                  
F8  FB  E7                  
90  FA  E8                  
50  F9  E9      0708        
F8  F8  EA                  
90  FC  E9          0A      
50  FB  E8                  
F8  FA  E7                  
90  F9  E6                  
50  F8  E5                  
F8  FC  E4                  
90  94  E3        0C        
50  93  E2        0B        
F8  92  E1        0A09      
90  91  E0                  
50  90  E1        09        
F8  94  E2                  
90  93  E3                  
50  92  E4                  
F8  91  E5      0608        
90  90  E6                  
50  94  E7          08      
F8  93  E8                  
90  92  E9                  
50  91  EA                  
F8  90  E9                  
90  94  E8                  
50  7D  E7        0C        
F8  7C  E6        0B        
90  7B  E5        0A07      
50  7A  E4                  
F8  79  E3        09        
90  7D  E2                  
50  7C  E1                  
F8  7B  E0                  
90  54  E1      000C        
50  53  E2        0B        
F8  52  E3        0A        
90  51  E4                  
50  50  E5        09        
F8  54  E6                  
90  53  E7                  
50  52  E8                  
F8  51  E9        08        
90  50  EA                  
50  54  E9          06      
F8  53  E8                  
90  52  E7                  
50  51  E6                  
F8  50  E5                  
90  54  E4                  
50  53  E3                  
F8  52  E2                  
90  51  E1                  
50  50  E0                  
F8  54  E1                  
90  53  E2                  
50  52  E3                  
F8  51  E4                  
D400AC  A006    090C0C      
    AB  A1      080B        
    AA  A2      070A0B      
    A9  A3      06          
    A8  A4        09        
    AC  A5                  
    AB  A6      05          
    AA  A7                  
    A9  A8        08        
    A8  A9                  
    AC  A8      04  0A      
    AB  A7                  
    AA  A6                  
    A9  A5                  
    A8  A4      00          
    AC  A3                  
    54  A2      090C        
    53  A1      080B        
    52  A0      070A09      
    51  9F      06          
    50  A0        09        
    54  A1                  
    53  A2      05          
    52  A3                  
    51  A4        08        
    50  A5                  
    54  A6      04  08      
    53  A7                  
    52  A8                  
    51  A9                  
    50  A8      00          
    54  A7                  
    30  A6        0C        
    2F  A5        0B        
    2E  A4        0A07      
    2D  A3                  
    2C  A2        09        
    30  A1                  
    2F  A0                  
    2E  9F                  
    2D  A0        08        
    2C  A1                  
    30  A2                  
    2F  A3                  
    2E  A4                  
    2D  A5                  
    2C  A6                  
    30  A7                  
    1F  A0      090C0C      
    1E  A1      080B        
    1D  A2      070A0B      
    1C  A3      06          
    1B  A4        09        
    1F  A5                  
    1E  A6      05          
    1D  A7                  
    1C  A8      0908        
    1B  A9      08          
    1F  A8      07  0A      
    1E  A7      06          
    1D  A6                  
    1C  A5                  
    1B  A4      05          
    1F  A3                  
BD  7D  E705    090C0C      
    7C  E8      080B        
    7B  E9      070A0B      
    7A  EA      06          
    79  EB        09        
    7D  EC                  
    7C  ED      05          
    7B  EE                  
    7A  EF        08        
    79  F0                  
    7D  EF      04  0A      
    7C  EE                  
    7B  ED                  
    7A  EC                  
    79  EB      00          
    7D  EA                  
    30  E9      090C        
    2F  E8      080B        
    2E  E7      070A09      
    2D  E6      06          
    2C  E7        09        
    30  E8                  
    2F  E9      05          
    2E  EA                  
    2D  EB        08        
    2C  EC                  
    30  ED      04  08      
    2F  EE                  
    2E  EF                  
    2D  F0                  
    2C  EF      00          
    30  EE                  
    1F  ED        0C        
    1E  EC        0B        
    1D  EB        0A07      
    1C  EA                  
    1B  E9        09        
    1F  E8                  
    1E  E7                  
    1D  E6                  
    00  E7        0C        
    FF00E8        0B        
    FE  E9        0A        
    FD  EA                  
    FC  EB        09        
    0001EC                  
    FF00ED                  
    FE  EE                  
    FD  E7      09080C      
    FC  E8      08          
    0001E9      07  0B      
    FF00EA      06          
    FE  EB                  
    FD  EC                  
    FC  ED      05          
    0001EE                  
    FF00EF      09          
    FE  F0      08          
    FD  EF      07  0A      
    FC  EE      06          
    0001ED                  
    FF00EC                  
    FE  EB      05          
    FD  EA                  
D4  AC01A006    090C00      
    AB  A1      080B0C      
    AA  A2      070A0B      
    A9  A3      06          
    A8  A4        09        
    AC  A5                  
    AB  A6      05          
    AA  A7                  
    A9  A8        08        
    A8  A9          00      
    AC  A8      04          
    AB  A7                  
    AA  A6                  
    A9  A5                  
    A8  A4      00          
    AC  A3                  
    54  A0      090C        
    53  A1      080B0C      
    52  A2      070A0B      
    51  A3      06          
    50  A4        09        
    54  A5                  
    53  A6      05          
    52  A7                  
    51  A8        08        
    50  A9          00      
    54  A8      04          
    53  A7                  
    52  A6                  
    51  A5                  
    50  A4      00          
    54  A3                  
    30  A2        0C        
    2F  A1        0B        
    2E  A0        0A        
    2D  9F                  
    2C  A0        09        
    30  A1                  
    2F  A2                  
    2E  A3                  
    2D  A4        08        
    2C  A5                  
    30  A6                  
    2F  A7                  
    2E  A8                  
    2D  A9                  
    2C  A8                  
    30  A7                  
    1F  A0      090C        
    1E  A1      080B0C      
    1D  A2      070A0B      
    1C  A3      06          
    1B  A4        09        
    1F  A5                  
    1E  A6      05          
    1D  A7                  
    1C  A0      090800      
    1B  A1      08  0C      
    1F  A2      07  0B      
    1E  A3      06          
    1D  A4                  
    1C  A5                  
    1B  A6      05          
    1F  A7                  
BD  7D  E705    090C00      
    7C  E8      080B0C      
    7B  E9      070A0B      
    7A  EA      06          
    79  EB        09        
    7D  EC                  
    7C  ED      05          
    7B  EE                  
    7A  EF        08        
    79  F0          00      
    7D  EF      04          
    7C  EE                  
    7B  ED                  
    7A  EC                  
    79  EB      00          
    7D  EA                  
    30  E7      090C        
    2F  E8      080B0C      
    2E  E9      070A0B      
    2D  EA      06          
    2C  EB        09        
    30  EC                  
    2F  ED      05          
    2E  EE                  
    2D  EF        08        
    2C  F0          00      
    30  EF      04          
    2F  EE                  
    2E  ED                  
    2D  EC                  
    2C  EB      00          
    30  EA                  
    1F  E9        0C        
    1E  E8        0B        
    1D  E7        0A        
    1C  E6                  
    1B  E7        09        
    1F  E8                  
    1E  E9                  
    1D  EA                  
    00  EB        0C        
    FF00EC        0B        
    FE  ED        0A        
    FD  EE                  
    FC  EF        09        
    0001F0                  
    FF00EF                  
    FE  EE                  
    FD  E7      0908        
    FC  E8      08  0C      
    0001E9      07  0B      
    FF00EA      06          
    FE  EB                  
    FD  EC                  
    FC  ED      05          
    0001EE                  
    FF00E7      09  00      
    FE  E8      08  0C      
    FD  E9      07  0B      
    FC  EA      06          
    0001EB                  
    FF00EC                  
    FE  ED      05          
    FD  EE                  
D4  AC01A006  F1070C00      
    AB  A1        0B0C      
    AA  A2      060A0B      
    A9  A3                  
    A8  A4        09        
    AC  A5      05          
    AB  A6                  
    AA  A7                  
    AC  A8        0C        
    AB  A9      040B00      
    AA  A8        0A        
    A9  A7                  
    A8  A6        09        
    AC  A5      00          
    AB  A4                  
    AA  A3                  
    54  A0      070C        
    53  A1        0B0C      
    52  A2      060A0B      
    51  A3                  
    50  A4        09        
    54  A5      05          
    53  A6                  
    52  A7                  
    AC  A8        0C        
    AB  A9      040B00      
    AA  A8        0A        
    A9  A7                  
    A8  A6        09        
    AC  A5      00          
    AB  A4                  
    AA  A3                  
    30  A2        0C        
    2F  A1        0B        
    2E  A0        0A        
    2D  9F                  
    2C  A0        09        
    30  A1                  
    2F  A2                  
    2E  A3                  
    AC  A4        0C        
    AB  A5        0B        
    AA  A6        0A        
    A9  A7                  
    A8  A8        09        
    AC  A9                  
    AB  A8                  
    AA  A7                  
    1F  A0        0C        
    1E  A1        0B0C      
    1D  A2        0A0B      
    1C  A3                  
    1B  A4        09        
    1F  A5                  
    1E  A6                  
    1D  A7                  
    AC  A0      070C00      
    AB  A1        0B0C      
    AA  A2      060A0B      
    A9  A3                  
    A8  A4        09        
    AC  A5      05          
    AB  A6                  
    AA  A7                  
    7D  E705    070C00      
    7C  E8        0B0C      
    7B  E9      060A0B      
    7A  EA                  
    79  EB        09        
    7D  EC      05          
    7C  ED                  
    7B  EE                  
    7D  EF        0C        
    7C  F0      040B00      
    7B  EF        0A        
    7A  EE                  
    79  ED        09        
    7D  EC      00          
    7C  EB                  
    7B  EA                  
    30  E7      070C        
    2F  E8        0B0C      
    2E  E9      060A0B      
    2D  EA                  
    2C  EB        09        
    30  EC      05          
    2F  ED                  
    2E  EE                  
    7D  EF        0C        
    7C  F0      040B00      
    7B  EF        0A        
    7A  EE                  
    79  ED        09        
    7D  EC      00          
    7C  EB                  
    7B  EA                  
    1F  E9        0C        
    1E  E8        0B        
    1D  E7        0A        
    1C  E6                  
    1B  E7        09        
    1F  E8                  
    1E  E9                  
    1D  EA                  
    7D  EB        0C        
    7C  EC        0B        
    7B  ED        0A        
    7A  EE                  
    79  EF        09        
    7D  F0                  
    7C  EF                  
    7B  EE                  
    00  E7        0C        
    FF00E8        0B0C      
    FE  E9        0A0B      
    FD  EA                  
    FC  EB        09        
    0001EC                  
    FF00ED                  
    FE  EE                  
    7D01E7      070C00      
    7C  E8        0B0C      
    7B  E9      060A0B      
    7A  EA                  
    79  EB        09        
    7D  EC      05          
    7C  ED                  
    7B  EE                  
    AC  A006    070C00      
    AB  A1        0B0C      
    AA  A2      060A0B      
    A9  A3                  
    A8  A4        09        
    AC  A5      05          
    AB  A6                  
    AA  A7                  
    AC  A8      070C        
    AB  A9        0B00      
    AA  A8      060A        
    A9  A7                  
    A8  A6        09        
    AC  A5      05          
    AB  A4                  
    AA  A3                  
    54  A0      070C        
    53  A1        0B0C      
    52  A2      060A0B      
    51  A3                  
    50  A4        09        
    54  A5      05          
    53  A6                  
    52  A7                  
    AC  A8      070C        
    AB  A9        0B00      
    AA  A8      060A        
    A9  A7                  
    A8  A6        09        
    AC  A5      05          
    AB  A4                  
    AA  A3                  
    30  A2      070C        
    2F  A1        0B        
    2E  A0      060A        
    2D  9F                  
    2C  A0        09        
    30  A1      05          
    2F  A2                  
    2E  A3                  
    AC  A4      070C        
    AB  A5        0B        
    AA  A6      060A        
    A9  A7                  
    A8  A8        09        
    AC  A9      05          
    AB  A8                  
    AA  A7                  
    1F  A0      070C        
    1E  A1        0B0C      
    1D  A2      060A0B      
    1C  A3                  
    1B  A4        09        
    1F  A5      05          
    1E  A6                  
    1D  A7                  
    AC  A0      070C00      
    AB  A1        0B0C      
    AA  A2      060A0B      
    A9  A3                  
    A8  A4        09        
    AC  A5      05          
    AB  A6                  
    AA  A7                  
    7D  E705    070C00      
    7C  E8        0B0C      
    7B  E9      060A0B      
    7A  EA                  
    79  EB        09        
    7D  EC      05          
    7C  ED                  
    7B  EE                  
    7D  EF      070C        
    7C  F0        0B00      
    7B  EF      060A        
    7A  EE                  
    79  ED        09        
    7D  EC      05          
    7C  EB                  
    7B  EA                  
    30  E7      070C        
    2F  E8        0B0C      
    2E  E9      060A0B      
    2D  EA                  
    2C  EB        09        
    30  EC      05          
    2F  ED                  
    2E  EE                  
    7D  EF      070C        
    7C  F0        0B00      
    7B  EF      060A        
    7A  EE                  
    79  ED        09        
    7D  EC      05          
    7C  EB                  
    7B  EA                  
    1F  E9      070C        
    1E  E8        0B        
    1D  E7      060A        
    1C  E6                  
    1B  E7        09        
    1F  E8      05          
    1E  E9                  
    1D  EA                  
    7D  EB      070C        
    7C  EC        0B        
    7B  ED      060A        
    7A  EE                  
    79  EF        09        
    7D  F0      05          
    7C  EF                  
    7B  EE                  
    00  E7      070C        
    FF00E8        0B0C      
    FE  E9      060A0B      
    FD  EA                  
    FC  EB        09        
    0001EC      05          
    FF00ED                  
    FE  EE                  
    7D01E7      070C00      
    7C  E8        0B0C      
    7B  E9      060A0B      
    7A  EA                  
    79  EB        09        
    7D  EC      05          
    7C  ED                  
    7B  EE                  
D5  AC  A006  DC090C09      
D6  AB  A1    F8080B0D      
D7  AA  A2        0A0C      
D8  A9  A3      07          
D9  A8  A4        090A      
DA  AC  A5      06          
DB  AB  A6          09      
DC  AA  A7      05          
DD  AC  A8    DC090C        
DE  AB  A9    F8080B0D      
DF  AA  A8        0A0C      
E0  A9  A7      07          
E1  A8  A6        090A      
E2  AC  A5      06          
E3  AB  A4          09      
E4  AA  A3      05          
E5  54  A2    DC090C        
E6  53  A1    F8080B0D      
E7  52  A0        0A0C      
E8  51  9F      07          
E9  50  A0        090A      
EA  54  A1      06          
EB  53  A2          09      
EC  52  A3      05          
ED  AC  A4    DC090C        
EE  AB  A5    F8080B0D      
EF  AA  A6        0A0C      
F0  A9  A7      07          
F1  A8  A8        090A      
F2  AC  A9      06          
F3  AB  A8          09      
F4  AA  A7      05          
F5  30  A6    DC090C        
F6  2F  A5    F8080B0D      
F7  2E  A4        0A0C      
F8  2D  A3      07          
F9  2C  A2        090A      
FA  30  A1      06          
FB  2F  A0          09      
FC  2E  9F      05          
FD  AC  A0    DC090C        
FE  AB  A1    F8080B0D      
FF  AA  A2        0A0C      
0001A9  A3      07          
01  A8  A4        090A      
02  AC  A5      06          
03  AB  A6          09      
04  AA  A7      05          
05  1F  A8    DC090C        
06  1E  A9    F8080B0D      
07  1D  A8        0A0C      
08  1C  A7      07          
09  1B  A6        090A      
0A  1F  A5      06          
0B  1E  A4          09      
0C  1D  A3      05          
0D  AC  A2    DC090C        
0E  AB  A1    F8080B0D      
0F  AA  A0        0A0C      
10  A9  9F      07          
11  A8  A0        090A      
12  AC  A1      06          
13  AB  A2          09      
14  AA  A3      05          
15  00  A4    DC090C        
16  FF00A5    F8080B0D      
17  FE  A6        0A0C      
18  FD  A7      07          
19  FC  A8        090A      
1A  0001A9      06          
1B  FF00A8          09      
1C  FE  A7      05          
1D  AC01A6    DC090C        
1E  AB  A5    F8080B0D      
1F  AA  A4        0A0C      
20  A9  A3      07          
21  A8  A2        090A      
22  AC  A1      06          
23  AB  A0          09      
24  AA  9F      05          
25  00  A0    DC090C        
26  FF00A1    F8080B0D      
27  FE  A2        0A0C      
28  FD  A3      07          
29  FC  A4        090A      
2A  0001A5      06          
2B  FF00A6          09      
2C  FE  A7      05          
2D  AC01A8    DC090C        
2E  AB  A9    F8080B0D      
2F  AA  A8        0A0C      
30  A9  A7      07          
31  A8  A6        090A      
32  AC  A5      06          
33  AB  A4          09      
34  AA  A3      05          
35  E400A2    DC090C        
36  E3  A1    F8080B0D      
37  E2  A0        0A0C      
38  E1  9F      07          
39  E0  A0        090A      
3A  E4  A1      06          
3B  E3  A2          09      
3C  E2  A3      05          
3D  AC01A4    DC090C        
3E  AB  A5    F8080B0D      
3F  AA  A6        0A0C      
40  A9  A7      07          
41  A8  A8        090A      
42  AC  A9      06          
43  AB  A8          09      
44  AA  A7      05          
45  D800A6    DC090C        
46  D7  A5    F8080B0D      
47  D6  A4        0A0C      
48  D5  A3      07          
49  D4  A2        090A      
4A  D8  A1      06          
4B  D7  A0          09      
4C  D6  9F      05          
4D  AC01A0    DC090C        
4E  AB  A1    F8080B0D      
4F  AA  A2        0A0C      
50  A9  A3      07          
51  A8  A4        090A      
52  AC  A5      06          
53  AB  A6          09      
54  AA  A7      05          
A8  7D  E705  F10A0D0D      
    30  E8      090C        
    00  E9        0B0C      
    C100EA      08          
    7D01EB                  
    30  EC                  
    00  ED        0A0A      
    C100EE      00  09      
    7D01EF      0A  0D      
    30  F0      09          
    00  EF        090C      
    C100EE      08          
    7D01ED                  
    30  EC                  
    00  EB        080A      
    C100EA      00  09      
    7D01A006    0A0D0D      
    30  A1      090C        
    00  A2        0B0C      
    C100A3      08          
    7D01A4                  
    30  A5                  
    00  A6        0A0A      
    C100A7      00  09      
    7D01E705    0A  0D      
    30  E8      09          
    00  E9        090C      
    C100EA      08          
    7D01EB                  
    30  EC                  
    00  ED        080A      
    C100EE      00  09      
    7D01EF      0A0D0D      
    30  F0      090C        
    00  EF        0B0C      
    C100EE      08          
    7D01ED                  
    30  EC                  
    00  EB        0A0A      
    C100EA      00  09      
    7D01E9      0A  0D      
    30  E8      09          
    00  E7        090C      
    C100E6      08          
    7D01E7                  
    30  E8                  
    00  E9        080A      
    C100EA      00  09      
    7D01A006    0A  0D      
    30  A1      09          
    00  A2        070C      
    C100A3      08          
    7D01A4                  
    30  A5                  
    00  A6        060A      
    C100A7      00  09      
    7D01E705    0A0D0D      
    30  E8      090C        
    00  E9        0B0C      
    C100EA      08          
    7D01EB                  
    30  EC                  
    00  ED        0A0A      
    C100EE      00  09      
    7D01EF      0A  0D      
    30  F0      09          
    00  EF        090C      
    C100EE      08          
    7D01ED                  
    30  EC                  
    00  EB        080A      
    C100EA      00  09      
    7D01E9      0A0D0D      
    30  E8      090C        
    00  E7        0B0C      
    C100E6      08          
    7D01E7                  
    30  E8                  
    00  E9        0A0A      
    C100EA      00  09      
    7D01A006    0A  0D      
    30  A1      09          
    00  A2        090C      
    C100A3      08          
    7D01A4                  
    30  A5                  
    00  A6        080A      
    C100A7      00  09      
    7D01E705    0A0D0D      
    30  E8      090C        
    00  E9        0B0C      
    C100EA      08          
    7D01EB                  
    30  EC                  
    00  ED        0A0A      
    C100EE      00  09      
    7D01EF      0A0D0D      
    30  F0      090C        
    00  EF        0B0C      
    C100EE      08          
    7D01ED                  
    30  EC                  
    00  EB        0A0A      
    C100EA      00  09      
    7D01E9      0A  0D      
    30  E8      09          
    00  E7        090C      
    C100E6      08          
    7D01E7                  
    30  E8                  
    00  E9        080A      
    C100EA      00  09      
    7D01F103    0A0D0D      
    30  F2      090C        
    00  F3        0B0C      
    C100F4      08          
    7D01F5                  
    30  F6                  
    00  F7        0A0A      
    C100F8      00  09      
    7D0149      0A  0D      
    30  4A      09          
    00  4B        090C      
    C1004C      08          
    7D014D                  
    30  4E                  
    00  4F        080A      
    C10050      00  09      
    FC01E107    0A0D0D      
    94  E2      090C        
    54  E3        0B0C      
    00  E4      08          
    FC  E5                  
    94  E6                  
    54  E7        0A0A      
    00  E8      00  09      
    FC  E9      0A  0D      
    94  EA      09          
    54  E9        090C      
    00  E8      08          
    FC  E7                  
    94  E6                  
    54  E5        080A      
    00  E4      00  09      
    FC  D808    0A0D0D      
    94  D9      090C        
    54  DA        0B0C      
    00  DB      08          
    FC  DC                  
    94  DD                  
    54  DE        0A0A      
    00  DF      00  09      
    FC  E107    0A  0D      
    94  E2      09          
    54  E3        090C      
    00  E4      08          
    FC  E5                  
    94  E6                  
    54  E7        080A      
    00  E8      00  09      
    FC  E9      0A0D0D      
    94  EA      090C        
    54  E9        0B0C      
    00  E8      08          
    FC  E7                  
    94  E6                  
    54  E5        0A0A      
    00  E4      00  09      
    FC  E3      0A  0D      
    94  E2      09          
    54  E1        090C      
    00  E0      08          
    FC  E1                  
    94  E2                  
    54  E3        080A      
    00  E4      00  09      
    FC  D808    0A  0D      
    94  D9      09          
    54  DA        070C      
    00  DB      08          
    FC  DC                  
    94  DD                  
    54  DE        060A      
    00  DF      00  09      
    FC  E107    0A0D0D      
    94  E2      090C        
    54  E3        0B0C      
    00  E4      08          
    FC  E5                  
    94  E6                  
    54  E7        0A0A      
    00  E8      00  09      
    FC  E9      0A  0D      
    94  EA      09          
    54  E9        090C      
    00  E8      08          
    FC  E7                  
    94  E6                  
    54  E5        080A      
    00  E4      00  09      
    FC  E3      0A0D0D      
    94  E2      090C        
    54  E1        0B0C      
    00  E0      08          
    FC  E1                  
    94  E2                  
    54  E3        0A0A      
    00  E4      00  09      
    FC  D808    0A  0D      
    94  D9      09          
    54  DA        090C      
    00  DB      08          
    FC  DC                  
    94  DD                  
    54  DE        080A      
    00  DF      00  09      
    FC  E107    0A0D0D      
    94  E2      090C        
    54  E3        0B0C      
    00  E4      08          
    FC  E5                  
    94  E6                  
    54  E7        0A0A      
    00  E8      00  09      
    FC  E9      0A0D0D      
    94  EA      090C        
    54  E9        0B0C      
    00  E8      08          
    FC  E7                  
    94  E6                  
    54  E5        0A0A      
    00  E4      00  09      
    FC  E3      0A  0D      
    94  E2      09          
    54  E1        090C      
    00  E0      08          
    FC  E1                  
    94  E2                  
    54  E3        080A      
    00  E4      00  09      
    FC  4305    0A0D0D      
    94  44      090C        
    54  45        0B0C      
    00  46      08          
    FC  47                  
    94  48                  
    54  49        0A0A      
    00  4A      00  09      
    FC  6C04    0A  0D      
    94  6D      09          
    54  6E        090C      
    00  6F      08          
    FC  70                  
    94  71                  
    54  72        080A      
    00  73      00  09      
    AC  A006    0A0D0D      
    54  A1      090C        
    1F  A2        0B0C      
    D800A3      08          
    AC01A4                  
    54  A5                  
    1F  A6        0A0A      
    D800A7      00  09      
    AC01A8      0A  0D      
    54  A9      09          
    1F  A8        090C      
    D800A7      08          
    AC01A6                  
    54  A5                  
    1F  A4        080A      
    D800A3      00  09      
    AC017007    0A0D0D      
    54  71      090C        
    1F  72        0B0C      
    D80073      08          
    AC0174                  
    54  75                  
    1F  76        0A0A      
    D80077      00  09      
    AC01A006    0A  0D      
    54  A1      09          
    1F  A2        090C      
    D800A3      08          
    AC01A4                  
    54  A5                  
    1F  A6        080A      
    D800A7      00  09      
    AC01A8      0A0D0D      
    54  A9      090C        
    1F  A8        0B0C      
    D800A7      08          
    AC01A6                  
    54  A5                  
    1F  A4        0A0A      
    D800A3      00  09      
    AC01A2      0A  0D      
    54  A1      09          
    1F  A0        090C      
    D8009F      08          
    AC01A0                  
    54  A1                  
    1F  A2        080A      
    D800A3      00  09      
    AC017007    0A  0D      
    54  71      09          
    1F  72        070C      
    D80073      08          
    AC0174                  
    54  75                  
    1F  76        060A      
    D80077      00  09      
    AC01A006    0A0D0D      
    54  A1      090C        
    1F  A2        0B0C      
    D800A3      08          
    AC01A4                  
    54  A5                  
    1F  A6        0A0A      
    D800A7      00  09      
    AC01A8      0A  0D      
    54  A9      09          
    1F  A8        090C      
    D800A7      08          
    AC01A6                  
    54  A5                  
    1F  A4        080A      
    D800A3      00  09      
    AC01A2      0A0D0D      
    54  A1      090C        
    1F  A0        0B0C      
    D8009F      08          
    AC01A0                  
    54  A1                  
    1F  A2        0A0A      
    D800A3      00  09      
    AC017007    0A  0D      
    54  71      09          
    1F  72        090C      
    D80073      08          
    AC0174                  
    54  75                  
    1F  76        080A      
    D80077      00  09      
    AC01A006    0A0D0D      
    54  A1      090C        
    1F  A2        0B0C      
    D800A3      08          
    AC01A4                  
    54  A5                  
    1F  A6        0A0A      
    D800A7      00  09      
    AC01A8      0A0D0D      
    54  A9      090C        
    1F  A8        0B0C      
    D800A7      08          
    AC01A6                  
    54  A5                  
    1F  A4        0A0A      
    D800A3      00  09      
    AC01A2      0A  0D      
    54  A1      09          
    1F  A0        090C      
    D8009F      08          
    AC01A0                  
    54  A1                  
    1F  A2        080A      
    D800A3      00  09      
    AC016C04    0A0D0D      
    54  6D      090C        
    1F  6E        0B0C      
    D8006F      08          
    AC0170                  
    54  71                  
    1F  72        0A0A      
    D80073      00  09      
    AC01B803    0A  0D      
    54  B9      09          
    1F  BA        090C      
    D800BB      08          
    AC01BC                  
    54  BD                  
    1F  BE        080A      
    D800BF      00  09      
    3A02D808    0A0D0D      
    C501D9      090C        
    7D  DA        0B0C      
    1F  DB      08          
    3A02DC                  
    C501DD                  
    7D  DE        0A0A      
    1F  DF      00  09      
    3A02E0      0A  0D      
    C501E1      09          
    7D  E0        090C      
    1F  DF      08          
    3A02DE                  
    C501DD                  
    7D  DC        080A      
    1F  DB      00  09      
    3A02ED09    0A0D0D      
    C501EE      090C        
    7D  EF        0B0C      
    1F  F0      08          
    3A02F1                  
    C501F2                  
    7D  F3        0A0A      
    1F  F4      00  09      
    3A02D808    0A  0D      
    C501D9      09          
    7D  DA        090C      
    1F  DB      08          
    3A02DC                  
    C501DD                  
    7D  DE        080A      
    1F  DF      00  09      
    3A02E0      0A0D0D      
    C501E1      090C        
    7D  E0        0B0C      
    1F  DF      08          
    3A02DE                  
    C501DD                  
    7D  DC        0A0A      
    1F  DB      00  09      
    3A02DA      0A  0D      
    C501D9      09          
    7D  D8        090C      
    1F  D7      08          
    3A02D8                  
    C501D9                  
    7D  DA        080A      
    1F  DB      00  09      
    3A02ED09    0A  0D      
    C501EE      09          
    7D  EF        070C      
    1F  F0      08          
    3A02F1                  
    C501F2                  
    7D  F3        060A      
    1F  F4      00  09      
    3A02D808    0A0D0D      
    C501D9      090C        
    7D  DA        0B0C      
    1F  DB      08          
    3A02DC                  
    C501DD                  
    7D  DE        0A0A      
    1F  DF      00  09      
    3A02E0      0A  0D      
    C501E1      09          
    7D  E0        090C      
    1F  DF      08          
    3A02DE                  
    C501DD                  
    7D  DC        080A      
    1F  DB      00  09      
    3A02DA      0A0D0D      
    C501D9      090C        
    7D  D8        0B0C      
    1F  D7      08          
    3A02D8                  
    C501D9                  
    7D  DA        0A0A      
    1F  DB      00  09      
    3A02ED09    0A  0D      
    C501EE      09          
    7D  EF        090C      
    1F  F0      08          
    3A02F1                  
    C501F2                  
    7D  F3        080A      
    1F  F4      00  09      
    3A02D808    0A0D0D      
    C501D9      090C        
    7D  DA        0B0C      
    1F  DB      08          
    3A02DC                  
    C501DD                  
    7D  DE        0A0A      
    1F  DF      00  09      
    3A02E0      0A0D0D      
    C501E1      090C        
    7D  E0        0B0C      
    1F  DF      08          
    3A02DE                  
    C501DD                  
    7D  DC        0A0A      
    1F  DB      00  09      
    3A02DA      0A  0D      
    C501D9      09          
    7D  D8        090C      
    1F  D7      08          
    3A02D8                  
    C501D9                  
    7D  DA        080A      
    1F  DB      00  09      
    3A02E705    0A0D0D      
    C501E8      090C        
    7D  E9        0B0C      
    1F  EA      08          
    3A02EB                  
    C501EC                  
    7D  ED        0A0A      
    1F  EE      00  09      
    3A02F704    0A  0D      
    C501F8      09          
    7D  F9        090C      
    1F  FA      08          
    3A02FB                  
    C501FC                  
    7D  FD        080A      
    1F  FE      00  09      
    7D  E705    0A0D0D      
    30  E8      090C        
    00  E9        0B0C      
    C100EA      08          
    7D01EB                  
    30  EC                  
    00  ED        0A0A      
    C100EE      00  09      
    7D01EF      0A  0D      
    30  F0      09          
    00  EF        090C      
    C100EE      08          
    7D01ED                  
    30  EC                  
    00  EB        080A      
    C100EA      00  09      
C6  7D01A006  F00B0D0D      
E4  30  A1  15  0A0C        
020200  A2  1C    0B0C      
20  C100A3  15              
3E  7D01A4  1C              
5C  30  A5  15  09          
7A  00  A6  1C    0A0A      
98  C100A7  15      09      
C6017D01E70500F10A  0D      
E4  30  E8      09          
020200  E9        090C      
20  C100EA      08          
3E  7D01EB                  
5C  30  EC                  
7A  00  ED        080A      
98  C100EE      00  09      
A8017D01EF      0A0D0D      
    30  F0      090C        
    00  EF        0B0C      
    C100EE      08          
    7D01ED                  
    30  EC                  
    00  EB        0A0A      
    C100EA      00  09      
    7D01E9      0A  0D      
    30  E8      09          
    00  E7        090C      
    C100E6      08          
    7D01E7                  
    30  E8                  
    00  E9        080A      
    C100EA      00  09      
C6  7D01A006  F00B  0D      
E4  30  A1  15  0A          
020200  A2  1C    070C      
20  C100A3  15              
3E  7D01A4  1C              
5C  30  A5  15  09          
7A  00  A6  1C    060A      
98  C100A7  15      09      
C6017D01E70500F10A0D0D      
E4  30  E8      090C        
020200  E9        0B0C      
20  C100EA      08          
3E  7D01EB                  
5C  30  EC                  
7A  00  ED        0A0A      
98  C100EE      00  09      
A8017D01EF      0A  0D      
    30  F0      09          
    00  EF        090C      
    C100EE      08          
    7D01ED                  
    30  EC                  
    00  EB        080A      
    C100EA      00  09      
    7D01E9      0A0D0D      
    30  E8      090C        
    00  E7        0B0C      
    C100E6      08          
    7D01E7                  
    30  E8                  
    00  E9        0A0A      
    C100EA      00  09      
C6  7D01A006  F00B  0D      
E4  30  A1  15  0A          
020200  A2  1C    090C      
20  C100A3  15              
3E  7D01A4  1C              
5C  30  A5  15  09          
7A  00  A6  1C    080A      
98  C100A7  15      09      
C6017D01E70500F10A0D0D      
E4  30  E8      090C        
020200  E9        0B0C      
20  C100EA      08          
3E  7D01EB                  
5C  30  EC                  
7A  00  ED        0A0A      
98  C100EE      00  09      
A8017D01EF      0A0D0D      
    30  F0      090C        
    00  EF        0B0C      
    C100EE      08          
    7D01ED                  
    30  EC                  
    00  EB        0A0A      
    C100EA      00  09      
    7D01E9      0A  0D      
    30  E8      09          
    00  E7        090C      
    C100E6      08          
    7D01E7                  
    30  E8                  
    00  E9        080A      
    C100EA      00  09      
C6  7D01F103  F00B0D0D      
E4  30  F2  15  0A0C        
020200  F3  1C    0B0C      
20  C100F4  15              
3E  7D01F5  1C              
5C  30  F6  15  09          
7A  00  F7  1C    0A0A      
98  C100F8  15      09      
C6017D0149  00F10A  0D      
E4  30  4A      09          
020200  4B        090C      
20  C1004C      08          
3E  7D014D                  
5C  30  4E                  
7A  00  4F        080A      
98  C10050      00  09      
A801FC01E107    0A0D0D      
    94  E2      090C        
    54  E3        0B0C      
    00  E4      08          
    FC  E5                  
    94  E6                  
    54  E7        0A0A      
    00  E8      00  09      
    FC  E9      0A  0D      
    94  EA      09          
    54  E9        090C      
    00  E8      08          
    FC  E7                  
    94  E6                  
    54  E5        080A      
    00  E4      00  09      
C6  FC  D808  F00B0D0D      
E4  94  D9  15  0A0C        
020254  DA  1C    0B0C      
20  00  DB  15              
3E  FC  DC  1C              
5C  94  DD  15  09          
7A  54  DE  1C    0A0A      
98  00  DF  15      09      
C601FC  E10700F10A  0D      
E4  94  E2      09          
020254  E3        090C      
20  00  E4      08          
3E  FC  E5                  
5C  94  E6                  
7A  54  E7        080A      
98  00  E8      00  09      
A801FC  E9      0A0D0D      
    94  EA      090C        
    54  E9        0B0C      
    00  E8      08          
    FC  E7                  
    94  E6                  
    54  E5        0A0A      
    00  E4      00  09      
    FC  E3      0A  0D      
    94  E2      09          
    54  E1        090C      
    00  E0      08          
    FC  E1                  
    94  E2                  
    54  E3        080A      
    00  E4      00  09      
C6  FC  D808  F00B  0D      
E4  94  D9  15  0A          
020254  DA  1C    070C      
20  00  DB  15              
3E  FC  DC  1C              
5C  94  DD  15  09          
7A  54  DE  1C    060A      
98  00  DF  15      09      
C601FC  E10700F10A0D0D      
E4  94  E2      090C        
020254  E3        0B0C      
20  00  E4      08          
3E  FC  E5                  
5C  94  E6                  
7A  54  E7        0A0A      
98  00  E8      00  09      
A801FC  E9      0A  0D      
    94  EA      09          
    54  E9        090C      
    00  E8      08          
    FC  E7                  
    94  E6                  
    54  E5        080A      
    00  E4      00  09      
    FC  E3      0A0D0D      
    94  E2      090C        
    54  E1        0B0C      
    00  E0      08          
    FC  E1                  
    94  E2                  
    54  E3        0A0A      
    00  E4      00  09      
C6  FC  D808  F00B  0D      
E4  94  D9  15  0A          
020254  DA  1C    090C      
20  00  DB  15              
3E  FC  DC  1C              
5C  94  DD  15  09          
7A  54  DE  1C    080A      
98  00  DF  15      09      
C601FC  E10700F10A0D0D      
E4  94  E2      090C        
020254  E3        0B0C      
20  00  E4      08          
3E  FC  E5                  
5C  94  E6                  
7A  54  E7        0A0A      
98  00  E8      00  09      
A801FC  E9      0A0D0D      
    94  EA      090C        
    54  E9        0B0C      
    00  E8      08          
    FC  E7                  
    94  E6                  
    54  E5        0A0A      
    00  E4      00  09      
    FC  E3      0A  0D      
    94  E2      09          
    54  E1        090C      
    00  E0      08          
    FC  E1                  
    94  E2                  
    54  E3        080A      
    00  E4      00  09      
C6  FC  4305  F00B0D0D      
E4  94  44  15  0A0C        
020254  45  1C    0B0C      
20  00  46  15              
3E  FC  47  1C              
5C  94  48  15  09          
7A  54  49  1C    0A0A      
98  00  4A  15      09      
C601FC  6C0400F10A  0D      
E4  94  6D      09          
020254  6E        090C      
20  00  6F      08          
3E  FC  70                  
5C  94  71                  
7A  54  72        080A      
98  00  73      00  09      
A801AC  A006    0A0D0D      
    54  A1      090C        
    1F  A2        0B0C      
    D800A3      08          
    AC01A4                  
    54  A5                  
    1F  A6        0A0A      
    D800A7      00  09      
    AC01A8      0A  0D      
    54  A9      09          
    1F  A8        090C      
    D800A7      08          
    AC01A6                  
    54  A5                  
    1F  A4        080A      
    D800A3      00  09      
C6  AC017007  F00B0D0D      
E4  54  71  15  0A0C        
02021F  72  1C    0B0C      
20  D80073  15              
3E  AC0174  1C              
5C  54  75  15  09          
7A  1F  76  1C    0A0A      
98  D80077  15      09      
C601AC01A00600F10A  0D      
E4  54  A1      09          
02021F  A2        090C      
20  D800A3      08          
3E  AC01A4                  
5C  54  A5                  
7A  1F  A6        080A      
98  D800A7      00  09      
A801AC01A8      0A0D0D      
    54  A9      090C        
    1F  A8        0B0C      
    D800A7      08          
    AC01A6                  
    54  A5                  
    1F  A4        0A0A      
    D800A3      00  09      
    AC01A2      0A  0D      
    54  A1      09          
    1F  A0        090C      
    D8009F      08          
    AC01A0                  
    54  A1                  
    1F  A2        080A      
    D800A3      00  09      
C6  AC017007  F00B  0D      
E4  54  71  15  0A          
02021F  72  1C    070C      
20  D80073  15              
3E  AC0174  1C              
5C  54  75  15  09          
7A  1F  76  1C    060A      
98  D80077  15      09      
C601AC01A00600F10A0D0D      
E4  54  A1      090C        
02021F  A2        0B0C      
20  D800A3      08          
3E  AC01A4                  
5C  54  A5                  
7A  1F  A6        0A0A      
98  D800A7      00  09      
A801AC01A8      0A  0D      
    54  A9      09          
    1F  A8        090C      
    D800A7      08          
    AC01A6                  
[...]
    8D  A2          0C      
    D4  A3      00  0B      
C6  1B017007  F00B  0E      
E4  6A0071  15  0A0A        
02028D  72  1C      0D      
20  D4  73  15              
3E  1B0174  1C              
5C  6A0075  15  09          
7A  8D  76  1C      0C      
98  D4  77  15      0B      
66031B01A00603F1080C0E      
84  6A00A1      07          
A2  8D  A2      06  0D      
C0  D4  A3        0B        
DE  1B01A4      08          
FC  6A00A5      07          
1A048D  A6      06  0C      
38  D4  A7          0B      
A8011B01A8  00  0A0C0E      
    6A00A9      09          
    8D  A8          0D      
    D4  A7      080B        
    1B01A6                  
    6A00A5                  
    8D  A4          0C      
    D4  A3      00  0B      
48031B01A2  03  08  0E      
    6A00A1      070A        
    8D  A0      06  0D      
    D4  9F                  
    1B01A0      08          
    6A00A1      07          
    8D  A2      06  0C      
    D4  A3          0B      
C6011B016C0400F00B0C0E      
E4  6A006D  15  0A          
02028D  6E  1C      0D      
20  D4  6F  15    0B        
3E  1B0170  1C              
5C  6A0071  15  09          
7A  8D  72  1C      0C      
98  D4  73  15      0B      
C6011B01B80300F10A  0E      
E4  6A00B9      090A        
02028D  BA          0D      
20  D4  BB      08          
3E  1B01BC                  
5C  6A00BD                  
7A  8D  BE          0C      
98  D4  BF      00  0B      
39011B01D808  F00B0C0E      
57  5E00D9  15  0A          
75  8D  DA  1C      0D      
1E00BD  DB  00  000B        
39011B01DC      0B          
57  5E00DD  15  0A          
75  8D  DE  1C      0C      
1E00BD  DF  00  00  0B      
39011B01E0      0B  0E      
57  5E00E1  15  0A0A        
75  8D  E0  1C      0D      
1E00BD  DF  00  00          
39011B01DE      0B          
57  5E00DD  15  0A          
75  8D  DC  1C      0C      
1E00BD  DB  00  00  0B      
1B011B01ED09    0B0C0E      
    5E00EE  15  0A          
    8D  EF  1C      0D      
0000BD  F0  00  000B        
1B011B01F1      0B          
    5E00F2  15  0A          
    8D  F3  1C      0C      
0000BD  F4  00  00  0B      
1B011B01D808    0B  0E      
    5E00D9  15  0A0A        
    8D  DA  1C      0D      
0000BD  DB  00  00          
1B011B01DC      0B          
    5E00DD  15  0A          
    8D  DE  1C      0C      
0000BD  DF  00  00  0B      
79011B01E0      0B0C0E      
    5E00E1  15  0A          
    8D  E0  1C      0D      
0000BD  DF  00  000B        
79011B01DE      0B          
    5E00DD  15  0A          
    8D  DC  1C      0C      
0000BD  DB  00  00  0B      
79011B01DA      0B  0E      
    5E00D9  15  0A0A        
    8D  D8  1C      0D      
0000BD  D7  00  00          
79011B01D8      0B          
    5E00D9  15  0A          
    8D  DA  1C      0C      
0000BD  DB  00  00  0B      
79011B01ED09    0B  0E      
    5E00EE  15  0A09        
    8D  EF  1C      0D      
0000BD  F0  00  00          
79011B01F1      0B          
    5E00F2  15  0A          
    8D  F3  1C      0C      
0000BD  F4  00  00  0B      
79011B01D808    0B0C0E      
    5E00D9  15  0A          
    8D  DA  1C      0D      
0000BD  DB  00  000B        
79011B01DC      0B          
    5E00DD  15  0A          
    8D  DE  1C      0C      
0000BD  DF  00  00  0B      
F8011B01E0      0B  0E      
    5E00E1  15  0A0A        
    8D  E0  1C      0D      
0000BD  DF  00  00          
F8011B01DE      0B          
    5E00DD  15  0A          
    8D  DC  1C      0C      
0000BD  DB  00  00  0B      
F8011B01DA      0B0C0E      
    5E00D9  15  0A          
    8D  D8  1C      0D      
0000BD  D7  00  000B        
F8011B01D8      0B          
    5E00D9  15  0A          
    8D  DA  1C      0C      
0000BD  DB  00  00  0B      
F8011B01ED09    0B  0E      
    5E00EE  15  0A0A        
    8D  EF  1C      0D      
0000BD  F0  00  00          
F8011B01F1      0B          
    5E00F2  15  0A          
    8D  F3  1C      0C      
0000BD  F4  00  00  0B      
F8011B01D808    0B0C0E      
    5E00D9  15  0A          
    8D  DA  1C      0D      
0000BD  DB  00  000B        
F8011B01DC      0B          
    5E00DD  15  0A          
    8D  DE  1C      0C      
0000BD  DF  00  00  0B      
36021B01E0      0B0C0E      
    5E00E1  15  0A          
    8D  E0  1C      0D      
0000BD  DF  00  000B        
36021B01DE      0B          
    5E00DD  15  0A          
    8D  DC  1C      0C      
0000BD  DB  00  00  0B      
36021B01DA      0B  0E      
    5E00D9  15  0A0A        
    8D  D8  1C      0D      
0000BD  D7  00  00          
36021B01D8      0B          
    5E00D9  15  0A          
    8D  DA  1C      0C      
0000BD  DB  00  00  0B      
36021B01E705    0B0C0E      
    5E00E8  15  0A          
    8D  E9  1C      0D      
0000BD  EA  00  000B        
36021B01EB      0B          
    5E00EC  15  0A          
    8D  ED  1C      0C      
0000BD  EE  00  00  0B      
36021B01F704    0B  0E      
    5E00F8  15  0A0A        
    8D  F9  1C      0D      
0000BD  FA  00  00          
36021B01FB      0B          
    5E00FC  15  0A          
    8D  FD  1C      0C      
0000BD  FE  00  00  0B      
5E  7901D808  F80C0D0C      
    2C  D9        0C        
2F  FC00DA      0B0B0B      
    BD  DB                  
    7901DC                  
5E  2C  DD                  
    FC00DE        0A        
    BD  DF                  
54  7901E0      0C          
    2C  E1                  
2A  FC00E0      0B090A      
    BD  DF                  
    7901DE                  
54  2C  DD                  
    FC00DC        08        
    BD  DB                  
5E  7901DA      0C0D        
    2C  D9        0C        
2F  FC00D8      0B0B09      
    BD  D7                  
    7901D8                  
5E  2C  D9                  
    FC00DA        0A        
    BD  DB                  
7E  7901DC      0C          
    2C  DD                  
3F  FC00DE      0B0908      
    BD  DF                  
    7901E0                  
7E  2C  E1                  
    FC00E0        08        
    BD  DF                  
BD  7901DE      0C0D        
    2C  DD        0C        
5E  FC00DC      0B0B07      
    BD  DB                  
    7901DA                  
BC  2C  D9                  
    FC00D8        0A        
    BD  D7                  
A8  7901D8      0C          
    2C  D9                  
54  FC00DA      0B09        
    BD  DB                  
    7901DC                  
A8  2C  DD                  
    FC00DE        08        
    BD  DF                  
BD  7901E0      0C          
    2C  E1                  
5E  FC00E0      0B0706      
    BD  DF                  
    7901DE                  
BC  2C  DD                  
    FC00DC        06        
    BD  DB                  
FC  3D01DA      0C0D        
    FC00D9        0C        
7E  D4  D8      0B0B        
    9F  D7                  
    3D01D8                  
FC  FC00D9                  
    D4  DA        0A        
    9F  DB                  
9F  3D017007    0C  0C      
    FC0071                  
4F  D4  72      0B090B      
    9F  73                  
    3D0174                  
9E  FC0075                  
    D4  76        08        
    9F  77                  
8D  3D0178      0C0D        
    FC0079        0C        
46  D4  78      0B0B0A      
    9F  77                  
    3D0176                  
8C  FC0075                  
    D4  74        0A        
    9F  73                  
9F  3D0172      0C          
    FC0071                  
4F  D4  70      0B0909      
    9F  6F                  
    3D0170                  
9E  FC0071                  
    D4  72        08        
    9F  73                  
D4  3D0174      0C0D        
    FC0075        0C        
6A  D4  76      0B0B08      
    9F  77                  
    3D0178                  
D4  FC0079                  
    D4  78        0A        
    9F  77                  
EE  3D0176      0C0D        
    FC0075        0C        
77  D4  74      0B0B07      
    9F  73                  
    3D0172                  
EE  FC0071                  
    D4  70        0A        
    9F  6F                  
D4  3D0170      0C          
    FC0071                  
6A  D4  72      0B09        
    9F  73                  
    3D0174                  
D4  FC0075                  
    D4  76        08        
    9F  77                  
EE  3D0178      0C0D        
    FC0079        0C        
77  D4  78      0B0B06      
    9F  77                  
    3D0176                  
EE  FC0075                  
    D4  74        0A        
    9F  73                  
3D013D0172      0C          
    FC0071                  
9E00D4  70      0B09        
    9F  6F                  
    3D0170                  
3C01FC0071                  
    D4  72        08        
    9F  73                  
4F00A801ED09    0C0D0C      
    50  EE        0C        
27  1B  EF      0B0B0B      
    D400F0                  
    A801F1                  
4E  50  F2                  
    1B  F3        0A        
    D400F4                  
47  A801F5      0C          
    50  F6                  
23  1B  F5      0B090A      
    D400F4                  
    A801F3                  
46  50  F2                  
    1B  F1        08        
    D400F0                  
4F  A801EF      0C0D        
    50  EE        0C        
27  1B  ED      0B0B09      
    D400EC                  
    A801ED                  
4E  50  EE                  
    1B  EF        0A        
    D400F0                  
6A  A801F1      0C          
    50  F2                  
35  1B  F3      0B0908      
    D400F4                  
    A801F5                  
6A  50  F6                  
    1B  F5        08        
    D400F4                  
9F  A801F3      0C0D        
    50  F2        0C        
4F  1B  F1      0B0B07      
    D400F0                  
    A801EF                  
9E  50  EE                  
    1B  ED        0A        
    D400EC                  
8D  A801ED      0C          
    50  EE                  
46  1B  EF      0B09        
    D400F0                  
    A801F1                  
8C  50  F2                  
    1B  F3        08        
    D400F4                  
9F  A801F5      0C          
    50  F6                  
4F  1B  F5      0B0706      
    D400F4                  
    A801F3                  
9E  50  F2                  
    1B  F1        06        
    D400F0                  
D4  0B01EF      0C0D        
    D400EE        0C        
6A  B2  ED      0B0B        
    85  EC                  
    0B01ED                  
D4  D400EE                  
    B2  EF        0A        
    85  F0                  
85  0B014106    0C  0C      
    D40042                  
42  B2  43      0B090B      
    85  44                  
    0B0145                  
84  D40046                  
    B2  47        08        
    85  48                  
77  0B0149      0C0D        
    D4004A        0C        
3B  B2  49      0B0B0A      
    85  48                  
    0B0147                  
76  D40046                  
    B2  45        0A        
    85  44                  
85  0B0143      0C          
    D40042                  
42  B2  41      0B0909      
    85  40                  
    0B0141                  
84  D40042                  
    B2  43        08        
    85  44                  
B2  0B0145      0C0D        
    D40046        0C        
59  B2  47      0B0B08      
    85  48                  
    0B0149                  
B2  D4004A                  
    B2  49        0A        
    85  48                  
C8  0B0147      0C0D        
    D40046        0C        
64  B2  45      0B0B07      
    85  44                  
    0B0143                  
C8  D40042                  
    B2  41        0A        
    85  40                  
B2  0B0141      0C          
    D40042                  
59  B2  43      0B09        
    85  44                  
    0B0145                  
B2  D40046                  
    B2  47        08        
    85  48                  
C8  0B0149      0C0D        
    D4004A        0C        
64  B2  49      0B0B06      
    85  48                  
    0B0147                  
C8  D40046                  
    B2  45        0A        
    85  44                  
0B010B0143      0C          
    D40042                  
8500B2  41      0B09        
    85  40                  
    0B0141                  
0A01D40042                  
    B2  43        08        
    85  44                  
5E007901D808    0C0D0C      
    2C  D9        0C        
2F  FC00DA      0B0B0B      
    BD  DB                  
    7901DC                  
5E  2C  DD                  
    FC00DE        0A        
    BD  DF                  
54  7901E0      0C          
    2C  E1                  
2A  FC00E0      0B090A      
    BD  DF                  
    7901DE                  
54  2C  DD                  
    FC00DC        08        
    BD  DB                  
5E  7901DA      0C0D        
    2C  D9        0C        
2F  FC00D8      0B0B09      
    BD  D7                  
    7901D8                  
5E  2C  D9                  
    FC00DA        0A        
    BD  DB                  
7E  7901DC      0C          
    2C  DD                  
3F  FC00DE      0B0908      
    BD  DF                  
    7901E0                  
7E  2C  E1                  
    FC00E0        08        
    BD  DF                  
BD  7901DE      0C0D        
    2C  DD        0C        
5E  FC00DC      0B0B07      
    BD  DB                  
    7901DA                  
BC  2C  D9                  
    FC00D8        0A        
    BD  D7                  
A8  7901D8      0C          
    2C  D9                  
54  FC00DA      0B09        
    BD  DB                  
    7901DC                  
A8  2C  DD                  
    FC00DE        08        
    BD  DF                  
BD  7901E0      0C          
    2C  E1                  
5E  FC00E0      0B0706      
    BD  DF                  
    7901DE                  
BC  2C  DD                  
    FC00DC        06        
    BD  DB                  
FC  3D01DA      0C0D        
    FC00D9        0C        
7E  D4  D8      0B0B        
    9F  D7                  
    3D01D8                  
FC  FC00D9                  
    D4  DA        0A        
    9F  DB                  
9F  3D017007    0C  0C      
    FC0071                  
4F  D4  72      0B090B      
    9F  73                  
    3D0174                  
9E  FC0075                  
    D4  76        08        
    9F  77                  
8D  3D0178      0C0D        
    FC0079        0C        
46  D4  78      0B0B0A      
    9F  77                  
    3D0176                  
8C  FC0075                  
    D4  74        0A        
    9F  73                  
9F  3D0172      0C          
    FC0071                  
4F  D4  70      0B0909      
    9F  6F                  
    3D0170                  
9E  FC0071                  
    D4  72        08        
    9F  73                  
D4  3D0174      0C0D        
    FC0075        0C        
6A  D4  76      0B0B08      
    9F  77                  
    3D0178                  
D4  FC0079                  
    D4  78        0A        
    9F  77                  
EE  3D0176      0C0D        
    FC0075        0C        
77  D4  74      0B0B07      
    9F  73                  
    3D0172                  
EE  FC0071                  
    D4  70        0A        
    9F  6F                  
D4  3D0170      0C          
    FC0071                  
6A  D4  72      0B09        
    9F  73                  
    3D0174                  
D4  FC0075                  
    D4  76        08        
    9F  77                  
EE  3D0178      0C0D        
    FC0079        0C        
77  D4  78      0B0B06      
    9F  77                  
    3D0176                  
EE  FC0075                  
    D4  74        0A        
    9F  73                  
3D013D0172      0C          
    FC0071                  
9E00D4  70      0B09        
    9F  6F                  
    3D0170                  
3C01FC0071                  
    D4  72        08        
    9F  73                  
4F00A801ED09    0C0D0C      
    50  EE        0C        
27  1B  EF      0B0B0B      
    D400F0                  
    A801F1                  
4E  50  F2                  
    1B  F3        0A        
    D400F4                  
47  A801F5      0C          
    50  F6                  
23  1B  F5      0B090A      
    D400F4                  
    A801F3                  
46  50  F2                  
    1B  F1        08        
    D400F0                  
4F  A801EF      0C0D        
    50  EE        0C        
27  1B  ED      0B0B09      
    D400EC                  
    A801ED                  
4E  50  EE                  
    1B  EF        0A        
    D400F0                  
6A  A801F1      0C          
    50  F2                  
35  1B  F3      0B0908      
    D400F4                  
    A801F5                  
6A  50  F6                  
    1B  F5        08        
    D400F4                  
9F  A801F3      0C0D        
    50  F2        0C        
4F  1B  F1      0B0B07      
    D400F0                  
    A801EF                  
9E  50  EE                  
    1B  ED        0A        
    D400EC                  
8D  A801ED      0C          
    50  EE                  
46  1B  EF      0B09        
    D400F0                  
    A801F1                  
8C  50  F2                  
    1B  F3        08        
    D400F4                  
9F  A801F5      0C          
    50  F6                  
4F  1B  F5      0B0706      
    D400F4                  
    A801F3                  
9E  50  F2                  
    1B  F1        06        
    D400F0                  
D4  0B01EF      0C0D        
    D400EE        0C        
6A  B2  ED      0B0B        
    85  EC                  
    0B01ED                  
D4  D400EE                  
    B2  EF        0A        
    85  F0                  
85  0B014106    0C  0C      
    D40042                  
42  B2  43      0B090B      
    85  44                  
    0B0145                  
84  D40046                  
    B2  47        08        
    85  48                  
77  0B0149      0C0D        
    D4004A        0C        
3B  B2  49      0B0B0A      
    85  48                  
    0B0147                  
76  D40046                  
    B2  45        0A        
    85  44                  
85  0B0143      0C          
    D40042                  
42  B2  41      0B0909      
    85  40                  
    0B0141                  
84  D40042                  
    B2  43        08        
    85  44                  
B2  0B0145      0C0D        
    D40046        0C        
59  B2  47      0B0B08      
    85  48                  
    0B0149                  
B2  D4004A                  
    B2  49        0A        
    85  48                  
C8  0B0147      0C0D        
    D40046        0C        
64  B2  45      0B0B07      
    85  44                  
    0B0143                  
C8  D40042                  
    B2  41        0A        
    85  40                  
B2  0B0141      0C          
    D40042                  
59  B2  43      0B09        
    85  44                  
    0B0145                  
B2  D40046                  
    B2  47        08        
    85  48                  
C8  0B0149      0C0D        
    D4004A        0C        
64  B2  49      0B0B06      
    85  48                  
    0B0147                  
C8  D40046                  
    B2  45        0A        
    85  44                  
0B010B0143      0C          
    D40042                  
8500B2  41      0B09        
    85  40                  
    0B0141                  
0A01D40042                  
    B2  43        08        
